
This full-field turbulence file was generated by TurbSim (v1.40, 12-Sep-2008) on 21-May-2021 at 12:51:26.

 | w-comp |  Y  x  Z  | Grid Resolution (Y x Z) | Time-step | Hub Elev | Mean U |
            10    10     15.556     15.556          0.050      80.00      7.00

 Z Coordinates (m):
  -70.000 -54.444 -38.889 -23.333  -7.778   7.778  23.333  38.889  54.444  70.000

 Y Coordinates (m):
  -70.000 -54.444 -38.889 -23.333  -7.778   7.778  23.333  38.889  54.444  70.000

    0.000   1.534
   -0.774   0.205  -0.599   0.929   0.530  -1.117   0.432  -0.596  -1.047  -0.083
   -0.109   0.460   0.318   0.610  -0.703  -0.931   0.066   1.534   0.589   0.803
    0.695   0.257  -0.491   0.631   0.313   0.378  -0.675   0.775   0.820  -0.213
   -0.313   0.408  -0.373  -0.672  -0.171  -0.586  -0.048   0.049  -0.455   1.149
   -0.441   0.765  -0.876  -0.534   1.236  -0.111  -0.349  -1.983  -0.598  -0.170
    0.492  -0.183   0.285   0.596   0.268  -1.135   0.470  -0.625   0.539  -0.599
    0.567  -0.201  -0.336  -0.375   0.500  -0.128   1.140   0.403  -0.489   1.240
   -1.172  -0.536  -1.502  -1.748   0.196  -0.158  -0.047  -0.892  -0.231  -0.283
   -0.250   0.457  -0.452   0.286   1.186   1.298   1.265   0.991  -0.373   0.236
   -0.330  -1.748  -0.251   1.527   1.846  -1.629   0.167  -0.232   0.524   0.300

    0.050   1.452
   -0.968   0.007  -0.552   1.138   0.740  -0.996   0.407  -0.833  -0.664   0.138
   -0.380  -0.008   0.469   0.556  -0.819  -0.857   0.039   1.396   0.150   1.027
    0.281   0.348  -0.562   0.636   0.231   0.316  -0.447   0.821   0.701  -0.146
   -0.125   0.221  -0.196  -0.554  -0.496  -1.075  -0.197   0.026  -0.545   0.884
   -0.436   0.663  -1.192  -0.269   1.359  -0.049  -0.007  -1.738  -0.630  -0.255
    0.383   0.384  -0.164   1.109   0.041  -0.958   0.333  -0.616   0.573  -0.392
    0.763  -0.158   0.077  -0.217   0.516   0.054   1.409   0.406  -0.579   1.014
   -1.071  -0.719  -1.284  -1.615  -0.075  -0.102  -0.030  -0.860  -0.350  -0.297
   -0.209   0.392  -0.510   0.485   1.200   1.253   1.419   1.002  -0.424   0.256
   -0.133  -2.207  -0.029   1.172   1.088  -1.368   0.039  -0.433   0.349   0.334

    0.100   1.600
   -0.706  -0.029  -0.504   1.130   0.703  -1.119   0.353  -0.676  -0.626  -0.058
   -0.553  -0.195   0.196   0.542  -0.917  -1.474  -0.240   1.237   0.124   0.864
   -0.005   0.476  -0.727   0.536  -0.021   0.177  -0.429   0.932   0.742  -0.105
   -0.373   0.149  -0.140  -0.301  -0.404  -1.193   0.154   0.229  -0.275   0.661
   -0.392   0.881  -1.037  -0.432   1.046   0.006   0.294  -1.578  -0.557   0.065
    0.008   0.726  -0.299   1.242  -0.109  -0.443   0.161  -0.608   0.279  -0.493
    0.692  -0.115   0.270  -0.405   0.256   0.074   1.502   0.156  -0.658   1.168
   -1.340  -0.930  -0.988  -1.690  -0.098  -0.274  -0.294  -0.442   0.004  -0.365
    0.528   0.273  -0.300   0.542   1.100   1.287   1.299   0.880  -0.699   0.342
   -0.294  -1.831   0.499   0.999   0.991  -1.449   0.150  -0.220   0.129   0.567

    0.150   1.997
   -0.838   0.390  -0.406   1.006   0.637  -0.687   0.286  -0.828  -0.618  -0.219
   -0.233   0.020   0.165   0.324  -1.182  -1.609  -0.198   0.734   0.051   0.746
    0.032   0.523  -0.440   0.528  -0.128  -0.149  -0.496   1.099   0.681  -0.393
   -0.306   0.484  -0.271  -0.365   0.157  -1.043  -0.153  -0.040  -0.380   0.407
   -0.675   0.960  -1.413  -0.776   1.043   0.006   0.552  -1.432  -0.191  -0.223
    0.094   0.476  -0.315   0.922   0.378  -0.442   0.226  -0.804   0.178  -0.729
    0.307  -0.373   0.415  -1.118  -0.141  -0.249   1.662   0.137  -0.665   1.317
   -1.196  -0.762  -1.029  -1.861  -0.504  -0.542  -0.270  -0.611  -0.269  -0.593
    0.200   0.700  -0.704   0.181   1.166   1.161   1.237   0.593  -0.864   0.558
   -0.430  -1.914   0.637   1.048   1.404  -1.083  -0.529  -0.087  -0.077   0.373

    0.200   2.144
   -0.799   0.518  -0.487   0.928   0.412  -0.779  -0.107  -0.872  -0.419  -0.118
   -0.077   0.147   0.157   0.893  -1.004  -1.753  -0.371   0.992   0.348   0.717
   -0.071   0.615  -0.679   0.641   0.044  -0.152  -0.427   1.086   1.157  -0.325
   -0.333   0.327  -0.245  -0.336   0.392  -0.868  -0.268  -0.180  -0.169   0.250
   -0.351   0.809  -1.052  -0.992   1.319  -0.031   0.577  -1.587  -0.239  -0.116
    0.345   0.567  -0.136   0.946   0.095  -0.653   0.330  -1.079   0.358  -0.918
    0.627  -0.488   0.074  -1.024  -0.185  -0.413   1.474   0.210  -0.575   1.067
   -0.946  -0.830  -0.962  -1.509  -0.193  -0.471  -0.205  -0.566  -0.299  -0.337
    0.058   0.975  -1.059   0.033   1.001   1.149   1.262   0.500  -0.618   0.285
   -0.685  -1.578   0.498   1.253   1.196  -1.024  -0.376  -0.048  -0.354   0.122

    0.250   1.986
   -0.758   0.213  -1.158   1.142   0.372  -1.220  -0.124  -0.587  -0.585  -0.254
   -0.049   0.380   0.020   0.468  -0.831  -1.489  -0.207   0.513   0.746   0.786
   -0.287   0.549  -0.378   0.248  -0.218  -0.174  -0.618   1.345   0.702  -0.610
   -0.494   0.549  -0.323  -0.231  -0.068  -0.943  -0.580  -0.568  -0.223   0.061
   -0.152   0.310  -0.813  -0.345   1.198  -0.292   0.252  -1.522  -0.027   0.107
    0.276   0.376  -0.193   0.925   0.439  -0.739   0.252  -0.843   0.449  -0.732
    0.674  -0.010   0.193  -1.074  -0.079  -0.254   1.035  -0.159  -0.419   0.999
   -0.821  -0.685  -1.233  -1.395   0.065  -0.559  -0.212  -0.793  -0.417  -0.153
   -0.170   0.868  -1.077  -0.117   1.081   1.367   1.289   0.477  -0.159   0.245
   -0.976  -1.901   0.207   1.313   1.216  -1.131  -0.110  -0.115  -0.582   0.430

    0.300   1.845
   -0.691   0.283  -1.491   0.888   0.469  -1.380  -0.326  -0.541  -0.741  -0.173
   -0.023   0.523  -0.196   0.434  -0.673  -1.532  -0.227   0.883   1.155   0.701
    0.079   0.866  -0.362  -0.047   0.246  -0.164  -0.641   1.322   0.701  -0.461
   -0.700   0.129  -0.176  -0.371  -0.014  -1.272  -0.087  -0.648  -0.129   0.154
   -0.208   0.354  -0.864  -0.467   1.385  -0.275   0.168  -1.304   0.069   0.001
    0.110   0.208  -0.002   0.953   0.452  -0.813   0.604  -0.540   0.419  -0.672
    0.919  -0.025  -0.043  -1.190   0.093  -0.034   1.026  -0.133  -0.538   1.069
   -0.772  -0.823  -1.265  -1.390   0.207  -0.683  -0.544  -1.285  -0.487  -0.561
   -0.243   0.554  -1.089   0.005   0.863   1.413   1.712   0.451   0.016   0.507
   -0.773  -2.014   0.339   1.226   1.177  -1.388  -0.258  -0.209  -0.591   0.771

    0.350   1.955
   -0.826   0.557  -1.828   0.904   0.190  -1.341  -0.749  -0.784  -0.693   0.068
   -0.236   0.646  -0.570   0.162  -0.469  -1.701  -0.360   1.100   0.437   0.320
   -0.113   0.676  -0.803   0.102  -0.220   0.055  -0.326   1.092   0.535  -0.732
   -0.440   0.201  -0.203  -0.368  -0.074  -1.508  -0.150  -0.437  -0.465   0.293
    0.024   0.242  -1.051  -1.111   1.292  -0.165   0.147  -1.338   0.195  -0.056
   -0.022   0.460   0.129   1.239   0.288  -0.638   0.601  -0.750   0.679  -0.187
    0.640  -0.067   0.011  -1.487   0.233  -0.310   0.568   0.153  -0.674   1.169
   -0.934  -0.869  -1.241  -1.159   0.468  -0.717  -0.297  -1.668  -0.552  -0.456
   -0.580   0.273  -1.029   0.335   0.867   1.441   1.417   0.262  -0.083   0.523
   -0.547  -1.881   0.292   1.009   1.315  -1.343  -0.035  -0.114  -0.304   1.140

    0.400   2.102
   -1.057   1.085  -1.671   0.815   0.128  -1.183  -0.922  -0.736  -0.896   0.478
   -0.523   0.880  -0.423   0.102  -0.285  -1.636  -0.266   0.977   1.032   0.304
    0.658   0.868  -0.954  -0.146  -0.424  -0.212   0.015   1.274   0.426  -0.801
   -0.214   0.692  -0.120  -0.686   0.165  -1.174  -0.374  -0.206  -0.726   0.421
    0.161   0.730  -1.184  -1.248   1.373  -0.148   0.008  -1.627   0.247   0.135
    0.164   0.450   0.027   1.482   0.304  -0.660   0.757  -0.847   0.883  -0.047
    0.444  -0.562   0.002  -1.670   0.681  -0.236   0.453   0.313  -0.500   1.296
   -0.858  -1.028  -1.282  -1.267   0.585  -0.965   0.312  -1.534  -0.393  -0.836
   -0.501   0.412  -1.056   0.327   0.770   0.874   1.103   0.195  -0.119   0.648
   -0.272  -1.760   0.424   1.016   0.989  -1.443  -0.164  -0.006  -0.175   1.122

    0.450   2.417
   -1.385   0.738  -1.748   0.871  -0.041  -1.216  -0.487  -0.713  -0.953   0.225
   -0.397   0.567  -0.452  -0.135  -0.009  -1.756   0.013   0.613   1.164   0.217
    0.695   0.642  -1.073  -0.252  -0.284   0.304  -0.177   1.175   0.149  -0.765
   -0.272   0.838   0.218  -1.022   0.398  -1.044  -0.252  -0.859  -0.598   0.423
    0.526   0.842  -1.053  -0.622   1.563   0.115  -0.063  -1.430  -0.293   0.381
    0.238   0.344  -0.087   1.580   0.228  -0.654   0.908  -0.729   1.112   0.066
    0.001  -0.649   0.267  -1.722   0.415   0.064   0.864   0.214  -0.798   0.630
   -0.833  -1.061  -1.317  -1.138   0.522  -0.519  -0.143  -1.676  -0.636  -0.819
   -0.134   0.175  -1.191   0.095   0.745   0.389   1.130   0.443   0.252   0.418
   -0.327  -1.398   0.450   1.050   1.136  -1.551  -0.330   0.084   0.311   1.133

    0.500   2.361
   -1.151   1.081  -1.899   0.923  -0.041  -0.812  -0.151  -1.125  -0.788   0.319
   -0.084   0.554  -0.684   0.250  -0.111  -1.788   0.077   1.192   1.007   0.075
    0.389   1.020  -1.211   0.031  -0.468   0.398  -0.114   1.088  -0.012  -0.965
   -0.172   0.486   0.250  -0.874  -0.058  -1.082  -0.434  -0.936  -0.315   0.353
    0.587   0.686  -0.928  -0.627   1.871   0.473  -0.061  -1.346  -0.380   0.230
    0.068   0.367   0.124   1.278   0.044  -0.517   0.984  -0.911   0.982  -0.214
    0.460  -0.591   0.284  -1.573   0.475   0.032   0.723   0.008  -0.900   0.447
   -0.690  -1.148  -1.242  -0.867   0.622  -0.390  -0.331  -1.530  -0.550  -0.517
    0.069   0.103  -1.030   0.113   0.582   0.243   0.911   0.457   0.307   0.174
   -0.412  -1.149   0.258   0.979   1.013  -1.701  -0.301   0.542   0.115   1.314

    0.550   2.267
   -1.225   1.132  -1.210   1.053   0.067  -0.971   0.130  -1.304  -0.892   0.054
    0.267   0.990  -0.254   0.107  -0.200  -1.789   0.120   1.103   0.779  -0.129
    0.365   0.774  -1.307   0.180  -0.229   0.189  -0.189   0.707  -0.025  -0.734
   -0.463   0.698   0.492  -0.683  -0.137  -0.593  -0.255  -0.935  -0.351   0.257
    1.158   0.311  -0.897  -0.776   1.962   0.493  -0.258  -0.955  -0.307   0.554
    0.205   0.454   0.165   1.383   0.061  -0.654   0.665  -1.221   1.078  -0.231
    0.842  -0.352   0.455  -1.564   0.600  -0.083   0.487   0.028  -0.698   0.305
   -0.875  -1.115  -1.206  -1.090   0.343  -0.265   0.002  -1.612  -0.509  -0.408
   -0.332  -0.167  -1.039   0.500   0.343   0.425   0.680   0.614   0.039   0.121
   -0.403  -0.720  -0.194   0.840   1.055  -1.465  -0.445   0.585   0.088   1.231

    0.600   2.251
   -1.176   0.897  -1.488   0.943  -0.090  -1.159  -0.147  -1.080  -0.474  -0.287
    0.020   0.918  -0.419   0.219  -0.136  -2.067  -0.270   0.916   1.019  -0.023
    0.869   0.840  -1.384  -0.097  -0.022  -0.207  -0.129   0.909  -0.302  -0.801
   -0.187   0.644   0.489  -0.613  -0.048  -0.771  -0.403  -0.734  -0.203   0.229
    0.809   0.305  -0.968  -1.055   1.678   0.620  -0.231  -1.049  -0.106   0.396
    0.265   0.273   0.033   1.357   0.203  -0.245   0.396  -1.278   0.779  -0.165
    0.486  -0.282   0.751  -1.369   0.290  -0.039   0.378  -0.322  -0.830   0.399
   -1.311  -1.325  -0.402  -1.322   0.059  -0.407  -0.095  -1.763  -0.323  -0.541
   -0.374  -0.156  -0.991   0.313   0.249   0.352   0.498   0.716   0.025   0.125
   -0.372  -1.245   0.113   1.015   0.986  -1.406  -0.594   0.419   0.139   1.118

    0.650   2.373
   -1.675   1.054  -1.852   1.004  -0.221  -1.501  -0.508  -0.755  -0.535  -0.622
   -0.532   0.762   0.227   0.134  -0.363  -2.183  -0.282   0.882   1.279  -0.036
    1.183   0.820  -1.037  -0.074   0.155   0.001   0.154   0.691  -0.327  -0.880
   -0.044   0.149   0.179  -0.678   0.169  -0.794  -0.356  -0.448  -0.178   0.679
    0.415   0.101  -1.163  -0.681   1.465   0.985  -0.238  -0.948   0.031   0.081
   -0.276   0.775   0.087   1.311  -0.105   0.250   0.420  -1.119   0.678  -0.282
    0.343  -0.394   0.931  -1.279   0.159  -0.523   0.599  -0.398  -0.813   0.150
   -1.492  -1.139  -0.205  -1.361  -0.403   0.106  -0.202  -1.511  -0.021  -0.603
   -0.238   0.242  -0.664   0.396   0.520   0.679   0.567   0.553  -0.186  -0.071
   -0.433  -1.389   0.437   1.042   1.138  -1.711  -0.664   0.961   0.042   0.923

    0.700   2.572
   -2.128   0.800  -1.589   1.114  -0.122  -1.391  -0.382  -0.506  -0.404  -0.312
   -0.652   1.014  -0.091   0.262  -0.227  -1.993  -0.780   0.694   0.730   0.191
    1.225   0.807  -1.070  -0.223   0.429   0.475  -0.079   0.914  -0.591  -0.770
    0.257  -0.051  -0.115  -0.686   0.042  -1.259  -0.147  -0.540  -0.418   0.927
    0.603   0.258  -1.191  -0.863   1.577   1.139   0.135  -0.680  -0.001   0.065
   -0.035   0.298   0.447   1.316  -0.053   0.004   0.516  -1.362   0.577  -0.651
    0.320  -0.209   1.253  -0.636   0.117  -0.498   0.820  -0.086  -0.917   0.576
   -1.512  -0.971  -0.291  -1.294  -1.179   0.132  -0.428  -1.150  -0.126  -0.639
   -0.046   0.082  -0.656   0.342   0.452   0.774   0.547   0.502   0.228  -0.452
   -0.678  -1.319   0.575   0.778   0.974  -1.546  -0.669   0.922   0.205   0.602

    0.750   2.352
   -2.403   0.676  -1.356   0.744  -0.444  -1.128   0.242  -0.722   0.412  -0.675
   -0.618   0.760  -0.015   0.382  -0.443  -2.155  -0.742   0.852   0.611   0.311
    0.967   0.597  -0.971  -0.204   0.635   0.537   0.279   0.683  -0.883  -0.352
   -0.104  -0.057  -0.066  -0.693  -0.112  -0.666  -0.037  -0.680  -0.334   1.169
    0.407   0.612  -1.268  -0.594   2.011   1.289  -0.240  -0.834  -0.150   0.119
    0.148   0.348   0.560   1.044   0.007   0.236   0.936  -1.303   0.448  -0.517
    0.451  -0.150   1.019  -0.147  -0.136  -0.193   0.702  -0.172  -0.474   0.879
   -1.563  -0.675  -0.370  -1.146  -1.004   0.216  -0.688  -1.220   0.258  -0.333
   -0.130   0.202  -0.421   0.469   0.303   0.194   0.635   0.078   0.132  -0.397
   -0.358  -1.293   0.495   0.973   1.437  -1.462  -0.964   0.691   0.696   0.338

    0.800   2.270
   -2.115   0.567  -1.308   0.429  -0.511  -1.086   0.035  -0.743   0.080  -0.576
   -0.740   0.462   0.079   0.373  -0.454  -1.982  -0.222   1.048   0.327   0.293
    0.756   0.739  -0.522  -0.239   0.482   0.294   0.333   0.451  -0.646  -0.423
   -0.019   0.502  -0.075  -0.900   0.229  -0.246   0.147  -1.010  -0.389   1.086
    0.647   0.909  -1.673  -0.465   1.946   0.945  -0.372  -0.794  -0.212   0.281
    0.279   0.106   0.432   0.892   0.209   0.189   0.890  -1.323  -0.048  -0.732
    0.519  -0.295   1.190  -0.484  -0.127  -0.484   0.891  -0.229  -0.469   0.840
   -1.863  -0.886  -0.494  -1.032  -1.065  -0.145  -0.684  -1.356   0.156  -0.292
    0.335   0.107  -0.285   0.706   0.285   0.270   0.508   0.045   0.116  -0.088
   -0.253  -1.207  -0.049   0.627   1.401  -1.419  -1.090   0.427   0.893   0.196

    0.850   1.957
   -2.143   0.386  -1.372   0.522  -0.540  -1.035   0.002  -0.966   0.109  -0.418
   -1.060   0.077   0.381   0.160  -0.277  -1.928  -0.269   0.950   1.064   0.617
    0.596   0.839  -0.623  -0.418   0.355   0.462   0.249   0.222  -0.491  -0.496
   -0.125   0.287   0.041  -1.111  -0.115  -0.361   0.163  -0.985  -0.017   1.085
    0.304   0.466  -1.372  -0.365   1.842   0.811  -0.526  -0.533  -0.402   0.200
    0.522   0.102   0.510   0.854   0.354   0.155   1.012  -1.398  -0.134  -0.598
    0.349  -0.080   1.519  -0.483   0.200  -0.304   1.554  -0.176  -0.889   1.476
   -1.466  -0.495  -0.741  -1.100  -0.759  -0.101  -0.794  -1.403   0.166  -0.483
    0.703   0.320  -0.385   0.791   0.235   0.233   0.956   0.161  -0.185   0.008
   -0.269  -1.559  -0.092   0.753   1.442  -1.202  -0.924   0.217   0.953   0.357

    0.900   1.876
   -2.242   0.144  -1.361   0.932  -0.547  -1.178   0.129  -0.811   0.256  -0.304
   -1.053  -0.187   0.274   0.136  -0.431  -1.832  -0.371   0.760   1.167   0.191
    1.241   0.774  -0.578  -0.372   0.266   0.316   0.425   0.560  -0.638  -0.665
   -0.290   1.167  -0.096  -0.755  -0.154  -0.532  -0.112  -1.207   0.161   1.171
    0.584   0.569  -1.096  -0.486   1.427   0.614  -0.533  -0.713   0.196  -0.287
    0.263  -0.127   0.738   0.839   0.244   0.425   0.630  -1.389   0.357  -0.698
    0.124  -0.381   2.012  -0.514  -0.221  -0.953   1.536  -0.007  -0.851   1.189
   -1.758  -0.235  -0.807  -1.181  -0.698  -0.244  -0.668  -1.394  -0.014  -0.254
    0.731   0.121  -0.340   0.360   0.499   0.151   1.134   0.150  -0.112  -0.252
   -0.217  -1.066   0.254   0.621   1.905  -1.210  -0.371   0.445   0.537   0.632

    0.950   1.761
   -1.995   0.397  -1.266   0.641  -0.423  -1.471  -0.309  -0.723   0.002  -0.628
   -1.162  -0.371  -0.118   0.096  -0.451  -1.903  -0.015   0.941   0.747  -0.068
    1.351   0.986  -0.448  -0.540   0.194   0.268   0.636   0.581  -0.481  -0.375
   -0.134   1.265  -0.169  -0.554  -0.480  -0.229  -0.178  -1.092   0.159   1.067
    0.530   0.446  -0.888  -0.670   1.684   0.360  -0.789  -0.858  -0.352  -0.526
   -0.010  -0.086   0.885   0.804   0.317   0.822   0.471  -0.869   0.043  -1.209
    0.098  -0.028   1.984  -0.360  -0.171  -0.719   1.511   0.082  -0.855   1.153
   -1.598  -0.676  -0.913  -1.004  -0.529  -0.277  -0.759  -1.579   0.123  -0.369
    0.431   0.040  -0.119   0.501   0.541   0.211   0.943   0.130  -0.069  -0.520
   -0.226  -1.423   0.058   0.677   1.896  -1.256  -0.418   0.647   0.526   0.605

    1.000   1.841
   -1.880   0.422  -0.801   0.462  -0.506  -1.401   0.089  -0.670   0.121  -0.728
   -0.932  -0.302  -0.643  -0.080  -0.088  -1.508  -0.219   0.870   0.836   0.280
    1.214   1.547  -0.889  -0.397   0.067   0.191   0.509   0.404  -0.596  -0.582
    0.005   0.783   0.186  -0.946  -0.509  -0.474  -0.286  -1.367   0.227   0.961
    0.495   0.481  -0.749  -0.393   1.802   0.641  -0.465  -0.387  -0.647  -0.344
   -0.499  -0.198   0.978   0.468   0.110   0.404   0.736  -1.254  -0.292  -0.879
    0.269  -0.153   1.876   0.227   0.486  -0.701   1.846   0.160  -0.803   1.490
   -1.434  -0.928  -0.867  -1.194  -0.776  -0.422  -0.696  -1.292   0.141  -0.127
    0.686  -0.099  -0.296   0.631   0.557   0.331   0.779   0.025   0.043  -0.337
    0.180  -1.245  -0.124   0.903   1.574  -1.400  -0.127   0.494   0.261   0.528

    1.050   2.308
   -2.293   0.366  -0.478   0.303  -0.777  -0.905  -0.039  -0.239   0.150  -0.591
   -1.197  -0.437  -0.755  -0.313  -0.192  -1.731  -0.223   1.005   0.665   0.112
    1.325   1.725  -1.038  -0.370   0.335   0.342   0.408   0.361  -1.086  -0.359
    0.147   0.672   0.384  -1.060  -0.686  -0.470  -0.335  -0.999   0.526   0.453
    0.207   0.246  -0.623  -0.056   1.166   0.738  -0.079  -0.442  -0.243  -0.525
   -0.666  -0.360   0.975   0.739  -0.001   0.367   0.795  -1.760  -0.248  -0.835
   -0.216  -0.072   1.544   0.278   0.485  -0.925   1.476   0.191  -0.790   1.610
   -1.008  -0.534  -0.651  -1.297  -0.906  -0.355  -0.726  -1.796   0.300  -0.132
    0.620   0.010  -0.119   0.591   0.525   0.015   0.750  -0.221   0.209  -0.316
    0.114  -1.212  -0.193   0.877   1.744  -0.905  -0.401   0.451   0.459   0.602

    1.100   2.201
   -1.938   0.665  -0.461   0.198  -1.083  -1.084  -0.253  -0.215   0.393  -0.413
   -1.250  -0.098  -0.589  -0.286  -0.133  -1.411  -0.170   1.159   0.272  -0.246
    1.182   1.811  -0.937  -0.367   0.561   0.553   0.126   0.543  -0.761  -0.301
    0.661   0.620   0.296  -1.123  -0.769  -0.795  -0.124  -1.263   0.686   0.565
    0.050   0.166  -0.369  -0.125   1.092   0.698   0.038  -0.637  -0.074  -0.899
   -0.768  -0.311   0.564   0.662   0.504   0.287   0.940  -1.484  -0.140  -1.154
   -0.010  -0.312   1.094  -0.047   0.432  -1.129   1.783   0.206  -0.881   1.250
   -1.178  -0.674  -0.806  -1.382  -0.878  -0.383  -0.892  -2.128   0.212  -0.353
    0.435  -0.479  -0.481   0.139   0.722  -0.066   0.767  -0.112   0.077   0.160
    0.428  -1.170  -0.105   0.572   1.939  -0.918  -0.936   0.524   0.301   0.534

    1.150   1.902
   -2.045   0.720   0.112   0.439  -1.363  -0.967   0.020  -0.282  -0.220  -0.135
   -0.652   0.229  -0.760  -0.508  -0.236  -1.469  -0.005   0.726   0.057  -0.508
    0.356   1.551  -0.397  -0.465   0.383   0.759   0.159   0.554  -0.470  -0.314
    0.884   0.568   0.186  -1.197  -0.764  -1.195  -0.181  -1.401   0.261   0.818
    0.260   0.153  -0.265  -0.152   0.781   0.494  -0.226  -0.839   0.425  -0.207
   -0.812  -0.018   0.818   0.652   0.519   0.097   0.560  -1.706  -0.453  -1.199
   -0.333  -0.604   1.016  -0.562   0.482  -0.959   1.511   0.240  -1.014   1.044
   -1.232  -0.819  -0.837  -1.426  -0.568  -0.022  -0.739  -2.171   0.003  -0.099
    0.267  -0.656  -0.428   0.110   0.843  -0.140   0.659  -0.090   0.449   0.643
    0.364  -1.370   0.072   0.326   2.000  -0.781  -0.890   0.708   0.207   0.585

    1.200   1.910
   -2.334   0.471  -0.154   0.500  -1.214  -1.410  -0.329  -0.361  -0.119  -0.378
   -0.213   0.125  -0.292  -1.022  -0.060  -1.477   0.087   0.645  -0.517  -0.225
    0.301   1.808  -0.618  -0.320   0.246   0.700  -0.016   0.358  -0.437  -0.214
    1.198   0.097  -0.019  -0.838  -0.542  -1.239  -0.191  -1.238   0.258   0.784
    0.045   0.419  -0.626  -0.245   0.702   0.208  -0.413  -0.695   0.404  -0.297
   -0.833  -0.026   0.585   0.786   0.728  -0.015   0.646  -1.477  -0.092  -1.005
   -0.555  -0.779   0.911  -0.414   0.545  -0.909   1.721   0.035  -0.976   0.987
   -1.154  -0.424  -0.830  -1.395  -0.527  -0.276  -0.321  -1.904   0.183   0.085
   -0.083  -0.417  -0.271   0.289   0.828  -0.265   0.552  -0.359   0.403   0.587
    0.490  -1.125  -0.130   0.314   2.256  -0.778  -0.558   0.448  -0.067   0.405

    1.250   2.520
   -2.478   0.560  -0.301   0.238  -1.045  -1.264   0.055  -0.855   0.040  -0.526
   -0.275  -0.062  -0.201  -0.830  -0.202  -1.259  -0.078   0.653  -0.125  -0.136
    0.831   1.713  -0.329  -0.067   0.261   0.504  -0.072   0.410  -0.349  -0.124
    0.733   0.185   0.304  -1.075  -0.327  -1.477   0.042  -1.558  -0.092   0.581
   -0.309   0.262  -1.066   0.073   0.741   0.375   0.024  -0.637   0.364  -0.817
   -0.858  -0.389   0.746   0.747   0.744   0.129   0.747  -1.402   0.099  -0.978
   -0.380  -1.238   1.368  -0.556   0.296  -0.556   2.148  -0.375  -1.030   1.179
   -0.786  -0.448  -0.577  -0.962  -0.411  -0.442   0.046  -1.945   0.512   0.228
   -0.115  -0.405  -0.791  -0.177   0.904  -0.583   0.684   0.070   0.029   0.145
    0.613  -1.197  -0.304   0.569   2.386  -0.752  -0.347   0.204   0.191   0.099

    1.300   2.522
   -2.569   0.374  -0.049   0.175  -0.936  -1.375   0.122  -0.956   0.152  -0.459
   -0.440   0.331   0.215  -0.616  -0.618  -1.616  -0.266   0.534   0.226   0.006
    0.922   1.754  -0.438  -0.225   0.072   0.860   0.056   0.904  -0.211   0.072
    0.596   0.394   0.059  -0.763  -0.177  -1.293   0.117  -1.544  -0.198   0.865
   -0.384   0.218  -0.721   0.011   0.560   0.296   0.669  -0.564   0.125  -0.971
   -0.574  -0.158   0.716   0.801   0.480  -0.006   0.660  -1.476   0.032  -0.774
   -0.435  -1.137   1.600  -0.483  -0.010  -0.347   2.079  -0.490  -1.243   1.105
   -1.155  -0.681  -1.005  -0.535  -0.360  -0.515   0.110  -2.412   0.553  -0.033
   -0.062  -0.469  -0.657  -0.245   1.372  -0.303   1.089   0.393  -0.232   0.054
    0.770  -1.386   0.411   0.890   2.357  -1.160  -0.522   1.014   0.014   0.269

    1.350   2.976
   -2.686   0.192   0.194   0.042  -0.441  -1.207   0.277  -0.620  -0.200  -0.153
   -0.494   0.384   0.319  -0.675  -0.181  -1.150  -0.233   1.207   0.327   0.212
    0.673   2.033  -0.516  -0.343   0.182   0.628  -0.261   1.098  -0.214   0.103
    0.469   0.425  -0.076  -0.785  -0.176  -0.728   0.456  -1.114  -0.358   0.781
   -0.474   0.326  -0.553   0.235   0.513   0.349   0.549  -0.505  -0.040  -0.096
   -0.824   0.057   0.745   0.789   0.421  -0.365   0.875  -1.546  -0.376  -0.704
   -0.171  -1.318   1.060  -0.529  -0.098  -0.541   2.447  -0.152  -1.405   0.901
   -1.404  -0.385  -1.026  -0.734  -0.236  -0.382  -0.226  -2.323   0.033   0.248
   -0.180   0.270  -0.516  -0.387   1.449   0.040   1.387   0.570  -0.573  -0.576
    0.533  -1.144   0.428   0.691   2.484  -1.311  -0.685   0.901  -0.245   0.236

    1.400   3.101
   -2.302   0.420   0.611  -0.419  -0.077  -1.225   0.438  -0.389  -0.124   0.032
   -0.795   0.587   0.693  -0.334   0.188  -0.865  -0.107   1.269   0.233   0.243
    1.093   2.283  -0.457   0.198   0.200   1.075   0.022   1.071  -0.684  -0.286
    0.262   0.460   0.133  -0.784  -0.321  -0.669   0.568  -1.258  -0.120   0.357
   -0.440   0.263  -0.522   0.081   0.693   0.756   0.409  -0.774  -0.431  -0.056
   -0.664  -0.099   0.888   0.798   0.243  -0.219   1.235  -0.822  -0.281  -1.405
    0.192  -1.169   1.536  -0.558   0.075  -0.547   2.449   0.040  -0.708   1.169
   -1.200  -0.346  -0.903  -1.095  -0.105  -0.083  -0.029  -2.584   0.101   0.266
   -0.487   0.403  -0.365  -0.207   1.174   0.036   1.161   0.351  -0.497  -0.737
    0.418  -1.243   0.350   0.426   2.740  -1.304  -0.532   0.922  -0.233   0.071

    1.450   2.750
   -2.138   0.213   0.895  -0.417  -0.232  -1.315   0.647  -0.482   0.017  -0.258
   -0.478   0.240   0.465  -0.400   0.014  -0.864  -0.224   1.881   0.281  -0.273
    0.820   2.317  -0.182   0.101  -0.272   0.701   0.289   0.653  -0.542  -0.706
    0.363   0.340  -0.051  -0.377  -0.193  -0.617   0.816  -1.467   0.024   0.303
   -0.457   0.263  -0.501   0.024   0.707   0.601   0.314  -0.619  -0.687  -0.184
   -0.895   0.139   0.545   0.328   0.062  -0.267   1.036  -0.760  -0.566  -0.886
    0.325  -1.485   1.117  -0.457   0.073  -0.750   2.688   0.191  -0.592   0.951
   -0.965  -0.410  -1.042  -0.811  -0.371  -0.145  -0.027  -2.041   0.058   0.341
   -0.222   0.184  -0.805  -0.043   1.085  -0.161   1.230   0.313  -0.511  -0.762
    0.531  -1.223  -0.101   0.902   2.666  -1.219  -0.552   1.001  -0.319   0.147

    1.500   2.459
   -2.276   0.341   1.188  -0.697  -0.302  -1.444   0.436  -0.556   0.105  -0.151
   -0.608   0.345   0.462  -0.452  -0.551  -1.053  -0.413   1.723   0.207  -0.166
    0.691   2.383   0.170   0.201  -0.027   0.828   0.330   0.517  -0.438  -0.673
    0.246   0.423   0.244  -0.197   0.469  -0.468   0.769  -0.906  -0.140   0.370
   -0.328   0.259  -0.861   0.446   0.955   0.692   0.393  -0.837  -0.507  -0.278
   -0.789   0.164   0.922  -0.147   0.150  -0.311   0.846  -0.813  -0.637  -0.641
    0.382  -1.614   1.601  -0.425  -0.096  -0.689   2.596  -0.183  -0.584   0.727
   -1.369  -0.296  -0.928  -1.108  -0.571  -0.081  -0.118  -1.905   0.098   0.271
   -0.254   0.017  -0.540   0.319   1.172   0.045   1.119   0.263  -0.623  -0.906
    0.466  -1.537   0.056   0.874   2.292  -1.135  -0.659   1.017  -0.178   0.550

    1.550   2.808
   -2.226   0.761   0.787  -0.715  -0.057  -1.346   0.711  -0.451   0.262  -0.076
   -0.588   0.251   0.375  -0.371  -0.814  -0.856   0.162   1.798   0.545  -0.275
    0.457   2.098   0.101   0.381  -0.250   1.011   0.697   0.261  -0.775   0.100
    0.364   0.582  -0.245  -0.424   0.686  -0.438   0.613  -0.808   0.003   0.185
   -0.452   0.584  -0.686   0.579   0.639   0.745   0.083  -0.825  -0.235  -0.080
   -0.779   0.283   0.842  -0.119  -0.013   0.429   0.821  -0.818  -0.380  -0.539
    0.413  -1.360   1.300  -0.807  -0.205  -0.424   2.794  -0.652  -0.762   0.850
   -1.056   0.099  -0.887  -1.326  -0.784   0.136  -0.330  -1.644  -0.034   0.410
   -0.162  -0.179  -0.512   0.415   1.312   0.216   0.837  -0.133  -0.677  -0.778
    0.344  -1.787   0.247   0.687   2.704  -1.355  -0.675   0.799   0.031   0.093

    1.600   2.733
   -2.061   0.764   0.111  -0.446  -0.054  -1.268   0.721  -0.219   0.000  -0.440
   -0.359   0.375   0.465  -0.369  -0.775  -1.018   0.200   1.699   0.467  -0.215
    0.182   2.634   0.139   0.625  -0.196   1.076   0.585   0.682  -0.883   0.326
    0.335   0.736  -0.547  -0.109   0.702  -0.542   0.252  -0.859   0.120   0.672
   -0.541   0.422  -0.713   0.815   0.352   0.870  -0.041  -0.483   0.095  -0.128
   -1.062   0.222   0.975   0.172  -0.031   0.701   0.825  -0.667  -0.624  -0.544
    0.630  -0.909   1.182  -0.865   0.110  -0.522   2.615  -0.283  -0.921   0.780
   -0.968   0.111  -1.030  -1.106  -0.833   0.232   0.073  -1.964  -0.271   0.508
    0.242   0.096  -0.425   0.417   1.181   0.029   0.835  -0.302  -0.739  -0.798
    0.133  -1.674   0.501   0.513   2.458  -1.273  -0.434   0.844   0.081  -0.484

    1.650   2.692
   -1.986   0.852  -0.310  -0.209  -0.085  -1.478   0.444   0.144  -0.067  -0.735
   -0.453   0.391   0.468  -0.157  -0.536  -1.185  -0.075   1.481   0.152  -0.101
    0.221   2.308   0.082   0.212  -0.174   1.122   0.341   0.983  -0.765   0.213
    0.003   0.767  -0.335   0.370   0.562  -0.340  -0.224  -1.271  -0.120   0.534
   -0.739   0.433  -0.653   0.619   0.602   0.676  -0.067  -0.340  -0.096  -0.018
   -0.886   0.401   0.696   0.126   0.111   0.606   1.313  -0.668  -0.485  -0.765
    0.285  -0.825   1.066  -0.856   0.551  -0.198   2.458  -0.069  -1.410   0.900
   -0.946  -0.054  -0.811  -1.071  -0.466   0.264   0.453  -2.116  -0.214   0.584
   -0.108   0.310  -0.491   0.596   0.873  -0.045   0.845  -0.284  -0.350  -0.770
   -0.025  -1.335   0.723   0.286   2.603  -0.828  -0.642   0.698   0.123  -0.666

    1.700   2.535
   -1.818   1.355   0.080  -0.266  -0.226  -1.698   0.577  -0.192  -0.220  -0.645
   -0.867   0.428   0.058  -0.137  -0.332  -1.636  -0.083   1.182   0.179  -0.710
    0.156   2.047   0.226   0.048   0.157   1.175   0.408   1.082  -0.458   0.214
   -0.298   0.699  -0.158   0.500   0.320  -0.213  -0.048  -1.274  -0.200   0.737
   -0.263   0.367  -0.516   1.144   0.151   0.571  -0.207  -0.446   0.277  -0.175
   -1.048   0.116   0.703   0.234  -0.056   0.405   1.360  -0.562  -0.377  -0.461
   -0.141  -0.831   0.631  -0.972   0.684  -0.526   2.439   0.165  -1.554   0.900
   -1.051  -0.148  -0.796  -1.460  -0.339   0.357   0.347  -2.060  -0.369   0.517
   -0.405   0.560  -0.628   0.749   1.091  -0.054   0.934  -0.381  -0.600  -0.604
    0.189  -1.104   0.471   0.457   2.444  -0.909  -0.586   0.493   0.694  -0.501

    1.750   2.438
   -1.742   0.830  -0.159  -0.006  -0.264  -1.513   0.247  -0.161  -0.082  -0.384