
This full-field turbulence file was generated by TurbSim (v1.40, 12-Sep-2008) on 21-May-2021 at 12:51:29.

 | u-comp |  Y  x  Z  | Grid Resolution (Y x Z) | Time-step | Hub Elev | Mean U |
            10    10     15.556     15.556          0.050      80.00     13.00

 Z Coordinates (m):
  -70.000 -54.444 -38.889 -23.333  -7.778   7.778  23.333  38.889  54.444  70.000

 Y Coordinates (m):
  -70.000 -54.444 -38.889 -23.333  -7.778   7.778  23.333  38.889  54.444  70.000

    0.000  10.761
   17.072  18.311  14.148  15.236  14.917  13.948  14.661  13.992  14.485  14.703
   15.895  14.847  14.194  16.097  14.961  13.814  11.372  13.355  12.136  12.395
   15.049  16.620  16.731  16.433  14.533  14.399  13.835  13.399  13.922  14.266
   13.267  15.072  13.555  12.499  15.659  15.586  15.657  13.000  18.431  14.963
   13.463  13.384  14.043  11.728  14.149  16.282  15.785  12.837  14.107  13.197
   13.071  13.769  15.078  11.585   9.508  11.212  10.800  11.512  12.427  10.855
    9.427   9.006  12.137  11.105  12.687  11.162  11.370  12.159  10.140  12.236
   10.486   5.892   8.404   9.322  10.431  10.037   9.093   9.294  12.504  14.237
    6.318   5.325   4.504   9.576   9.859  10.390   9.836  11.101  13.198  11.625
    5.069   4.448   6.855   8.118  10.761   9.939  10.296  11.153  11.933   9.873

    0.050  10.982
   16.601  18.173  14.704  16.025  14.407  14.423  14.670  13.703  13.939  15.069
   15.301  14.584  14.324  16.585  14.651  14.695  11.786  13.581  11.617  11.985
   15.422  17.020  16.186  15.912  14.645  14.813  13.727  14.533  14.075  13.414
   13.688  15.519  13.617  12.981  15.625  16.379  16.142  12.686  17.820  14.125
   13.945  13.319  14.111  12.205  14.494  16.260  15.630  13.158  13.995  12.677
   13.335  14.178  14.979  11.630   8.534  11.180  11.663  11.207  12.915  10.602
    9.414   9.014  12.400  10.278  12.620  10.945  11.533  11.563  10.213  12.701
   10.758   5.091   8.098   9.778  10.899  10.194   9.313   9.147  12.477  14.604
    6.267   5.131   4.091   9.716   9.449  10.506   9.666  10.791  13.562  11.274
    5.384   4.800   6.697   8.330  10.730   9.702  10.079  10.894  11.759  10.326

    0.100  11.579
   16.670  17.679  15.062  16.310  14.622  14.750  14.528  13.623  13.911  15.558
   15.374  15.529  14.830  15.936  14.507  15.220  11.621  13.219  11.730  11.532
   16.172  17.113  15.737  15.534  14.110  14.744  14.306  14.059  13.872  13.530
   14.204  15.305  13.416  13.336  15.460  16.723  16.237  12.693  17.893  14.019
   14.328  13.779  14.842  11.897  14.425  16.675  15.180  13.903  13.995  12.922
   13.213  14.040  15.245  11.508   8.721  10.565  11.961  11.415  12.499  11.008
    9.755   9.413  12.552   9.220  12.399  11.470  12.192  11.441  10.820  12.250
   10.138   5.872   8.259   9.563  11.362   9.913   8.981   8.749  12.260  14.768
    6.070   6.021   4.579   9.993   9.406  10.266   9.670  10.582  13.882  11.669
    5.134   4.906   6.150   7.643  10.412   8.845  10.048  10.665  11.784  10.307

    0.150  11.552
   16.522  17.639  14.885  16.392  15.431  14.453  14.167  12.945  13.109  15.533
   15.358  15.984  14.980  16.103  14.092  14.650  11.890  12.825  11.667  11.542
   15.910  16.253  16.092  16.054  13.387  14.983  13.730  13.823  14.473  13.260
   13.222  15.304  14.307  12.573  15.072  17.072  15.975  13.027  17.899  13.930
   14.013  13.401  14.644  12.890  14.608  16.623  15.133  13.950  14.178  12.750
   13.248  13.316  15.619  11.810   8.824  11.472  12.140  11.882  13.146  11.411
    9.978   9.284  12.287   8.547  12.355  11.915  12.828  11.901  11.434  12.832
   10.306   7.004   8.294   9.608  12.342  10.179   8.768   9.045  12.967  14.579
    5.508   5.803   4.854  10.141   9.757   9.897   9.933  10.575  13.867  11.986
    5.383   5.329   5.977   7.527   9.813   9.600  10.635  10.958  12.462  10.752

    0.200  12.277
   16.369  18.012  15.279  16.398  15.267  13.610  13.532  13.004  12.898  15.551
   15.680  17.457  14.454  16.139  13.871  15.255  12.465  12.871  11.283  12.076
   16.439  16.579  16.311  16.141  13.737  15.418  13.481  13.820  14.700  13.067
   12.614  15.143  14.480  12.764  15.383  16.549  15.893  13.074  18.307  14.375
   13.059  13.381  14.334  12.958  14.024  16.177  14.244  14.058  13.698  12.347
   13.165  12.183  15.431  11.563   8.765  11.865  12.554  11.776  13.224  11.740
   10.042   9.055  12.627   8.682  12.016  12.577  12.810  12.418  11.573  13.015
   10.628   7.592   8.148   9.560  11.626  10.251   8.425   8.600  12.760  14.738
    6.819   5.307   4.562   9.472  10.395  10.361   9.404  11.009  14.582  11.931
    4.754   5.188   6.058   7.191   9.690   9.334   9.996  10.891  12.184   9.893

    0.250  12.210
   16.108  17.115  15.810  17.720  15.474  13.447  13.102  12.910  13.667  15.535
   15.356  17.809  14.810  15.466  13.859  15.419  12.085  12.852  11.214  12.389
   16.151  17.008  16.385  16.333  13.781  14.360  14.047  13.884  13.660  12.863
   12.438  15.504  14.700  13.569  15.990  16.213  15.561  14.078  18.357  13.416
   13.707  13.175  14.718  13.097  13.201  16.203  14.413  13.059  13.438  12.293
   13.878  12.341  14.791  11.150   9.241  12.351  12.569  11.925  12.870  12.332
    9.725   8.858  12.367   9.227  11.410  13.208  13.412  12.157  11.943  12.506
   10.769   7.729   8.026  10.595  10.870  10.443   9.253   8.707  12.897  14.349
    6.719   5.812   4.098   9.361   9.831   9.544   9.463  11.231  14.324  11.802
    4.650   5.455   6.496   7.030   9.250   9.564  10.114  11.457  12.241   9.663

    0.300  11.763
   15.744  17.070  15.337  17.704  15.180  14.162  12.899  13.285  12.827  15.631
   15.546  17.726  14.876  16.037  13.188  15.172  12.302  13.092  12.125  12.534
   16.117  16.714  16.212  16.025  14.161  14.094  14.161  13.829  13.246  13.181
   13.104  15.087  14.437  13.634  15.784  16.622  14.930  14.336  18.159  13.012
   14.100  13.306  15.406  13.623  13.667  15.931  15.130  13.114  13.330  12.492
   13.542  12.673  14.703  11.353   9.769  12.566  12.718  12.224  12.809  12.082
   10.051   7.534  12.789   9.151  10.871  13.490  13.005  12.254  11.894  11.850
   10.715   7.549   8.634  10.934  10.959  10.109   9.397   8.966  12.765  13.621
    6.728   6.308   3.843   9.210  10.070   9.790   9.548  11.398  14.206  11.734
    4.731   5.508   6.906   7.030   9.229   9.820  10.191  11.587  11.923  10.000

    0.350  11.592
   15.885  16.847  15.790  17.050  15.381  14.454  12.587  13.233  13.847  16.146
   16.050  18.578  13.890  16.203  14.132  15.328  12.875  13.184  11.772  12.754
   16.505  16.581  15.796  15.405  14.249  13.945  14.264  14.096  13.535  12.442
   13.790  15.051  14.620  13.457  16.032  16.990  15.095  14.505  18.277  13.030
   14.030  13.728  15.528  14.014  14.461  16.560  15.217  13.336  12.871  11.964
   13.380  13.834  14.694  11.913   9.278  11.942  12.654  12.388  12.873  11.945
    9.891   7.552  12.795   9.191  11.370  13.401  13.041  12.834  11.986  11.440
    9.956   7.176   8.933  10.133  10.644   8.908   8.931   9.001  12.750  13.422
    7.236   5.739   3.876   8.411  10.310  10.507   9.616  10.860  14.326  12.067
    4.407   5.648   7.137   6.678   9.082  10.181   9.850  11.674  11.953   9.896

    0.400  12.166
   16.392  16.973  15.289  17.900  15.277  14.371  13.176  13.452  14.372  16.259
   16.240  17.989  13.965  16.781  14.184  14.985  12.429  12.923  12.138  12.692
   16.029  16.256  16.166  15.511  14.223  13.702  14.374  14.823  13.553  12.395
   13.887  14.660  14.023  13.533  15.546  16.304  15.804  14.127  18.002  13.438
   13.677  14.038  15.279  14.614  13.849  15.867  15.235  13.433  12.648  11.853
   14.120  13.520  15.008  11.594   8.056  11.359  11.896  12.468  12.712  11.771
   10.184   8.101  13.005   9.732  10.827  12.625  12.927  12.835  11.670  10.960
    9.953   7.258   9.068  10.825  10.102   9.149   9.584   9.177  12.299  13.738
    7.616   5.910   3.625   8.255   9.692  10.459   9.354  11.279  13.376  12.079
    4.556   5.144   7.166   6.686   9.432  11.276  10.540  11.822  12.103  10.185

    0.450  12.023
   16.049  16.432  15.262  17.131  16.007  14.509  12.833  13.132  14.149  16.017
   16.028  18.500  14.555  16.824  14.152  14.984  12.282  13.011  12.204  12.450
   15.905  16.286  15.960  15.521  13.987  13.256  14.352  14.384  13.527  13.588
   13.805  13.711  13.739  13.606  16.002  15.183  15.309  14.671  17.789  13.360
   14.259  14.893  15.135  14.883  14.012  16.023  14.884  13.751  13.334  11.630
   14.094  13.151  14.966  11.056   8.042  11.393  12.244  12.986  11.997  11.797
   10.511   8.604  12.871   9.535  11.154  12.392  12.569  13.233  11.233  11.644
    9.317   7.054   8.554  10.965  10.527   9.545   9.716   9.301  11.725  14.257
    7.972   5.435   3.852   8.089  10.209   9.677   9.790  10.950  12.785  12.097
    4.797   4.412   6.655   6.935   9.435  10.843  11.207  11.224  11.915   9.872

    0.500  11.745
   15.982  17.066  15.092  16.999  15.849  13.967  13.309  13.321  13.978  15.880
   15.668  17.829  14.742  16.516  13.980  14.923  11.959  12.719  12.203  12.284
   15.625  16.349  15.973  15.975  13.828  13.633  14.194  14.500  13.871  14.437
   13.519  13.898  14.810  13.550  16.122  16.130  14.910  15.150  17.469  13.208
   13.906  14.413  15.281  14.534  14.201  15.144  16.128  13.836  13.964  12.199
   14.157  12.831  13.800  10.678   8.363  10.674  12.462  13.461  12.302  12.210
   10.708   8.616  12.477  10.212  10.920  11.982  13.286  13.081  10.797  12.338
    9.216   7.352   7.993  10.265  11.283  10.173   9.892   8.675  11.757  13.015
    7.871   5.920   4.463   8.404  10.089   9.647   9.437  11.007  12.595  12.341
    4.151   4.750   6.191   6.794   9.605  10.602  10.575  11.351  11.921   9.873

    0.550  11.540
   16.443  16.838  15.246  16.706  15.210  13.604  13.083  13.802  14.368  15.673
   15.800  17.829  14.732  16.217  14.093  14.548  12.026  13.660  11.996  12.362
   15.496  15.997  16.402  16.509  14.038  14.326  14.768  15.117  13.808  14.154
   13.537  13.219  14.895  13.419  16.040  16.038  14.598  14.810  16.953  13.045
   14.409  14.205  14.335  14.484  14.377  14.659  17.179  13.975  13.090  12.053
   14.554  12.727  14.214  10.251   8.104  10.667  12.159  13.506  12.205  11.633
   10.820   8.414  11.977  10.083  11.136  12.186  13.352  11.955  11.097  12.269
   10.017   7.375   8.010   9.502  10.510   9.975   9.963   8.074  11.837  12.902
    7.473   5.624   4.306   8.846   9.513  10.328   9.184  10.965  11.757  12.430
    4.740   4.618   6.824   6.530  10.038  10.694  10.594  11.092  11.601   9.916

    0.600  11.994
   16.755  16.405  16.404  15.765  15.357  14.251  12.998  14.224  14.589  15.588
   15.591  18.252  15.202  16.521  14.443  14.113  12.491  13.389  12.088  11.903
   16.333  15.532  16.421  16.438  14.328  14.774  13.656  15.360  14.308  13.808
   13.862  12.834  14.490  13.446  16.224  16.236  14.525  14.469  17.485  13.215
   14.741  13.896  14.486  15.044  14.863  14.894  16.440  14.043  12.587  12.209
   13.785  12.227  14.238  10.588   7.821  11.024  12.326  14.051  12.233  11.634
   11.000   8.503  11.695   9.328  11.294  11.677  13.536  11.682  11.390  12.636
   10.094   6.821   7.179   9.364  10.412   9.486  10.469   8.724  12.623  12.547
    6.975   5.202   3.699   8.481   9.374  10.348   9.243  10.841  11.524  13.902
    4.434   4.487   6.797   6.733  10.298  10.235  10.114  10.580  10.890  10.351

    0.650  11.276
   16.423  16.295  17.099  15.644  15.557  14.782  13.151  14.225  14.459  15.763
   14.760  18.397  15.167  16.309  14.280  13.174  12.736  12.893  12.264  12.013
   16.845  15.576  16.858  16.360  14.545  14.555  13.389  15.181  14.535  13.443
   13.976  13.118  13.354  13.567  16.340  16.397  14.977  15.065  16.937  13.646
   13.654  14.123  14.863  14.795  14.863  14.455  16.033  14.604  12.610  12.121
   13.791  12.632  13.673  11.583   8.060  11.949  12.504  13.909  12.300  11.678
   10.711   8.788  11.173   9.236  11.392  12.016  13.146  12.305  11.835  13.303
    9.802   6.915   8.012   8.979  10.022   9.990   9.795   9.617  13.203  12.473
    7.724   5.574   3.957   8.062   9.103  10.020  10.577  11.301  11.465  14.840
    4.429   3.665   6.694   6.510  10.179  10.387   9.935  10.550  10.569  10.952

    0.700  10.771
   16.298  15.272  16.478  15.921  15.766  15.256  13.608  14.048  13.933  15.689
   14.982  18.657  15.374  16.223  14.197  13.149  12.783  13.155  12.346  12.240
   17.099  15.546  16.793  16.046  14.794  15.045  13.861  15.253  14.261  13.847
   14.193  13.203  13.628  14.164  15.901  15.937  14.762  15.433  16.779  13.982
   13.607  13.938  14.537  14.891  15.144  14.201  15.283  14.729  11.643  12.443
   13.521  12.531  13.241  12.201   8.052  12.747  12.621  13.566  11.955  11.753
   10.557   9.169  11.208   9.035  12.299  12.059  12.954  12.951  11.782  13.069
   10.082   7.178   7.654   9.306  10.169  10.039   9.478   9.770  13.329  12.842
    7.119   5.385   4.246   8.230   8.877  10.313  10.148  12.126  11.894  14.741
    5.556   4.114   6.490   6.856  10.498  10.606  10.080  10.332   9.961  10.627

    0.750  10.476
   16.618  15.514  16.231  16.284  16.295  15.298  14.605  14.390  13.545  14.983
   15.100  17.890  15.255  16.360  13.853  14.036  12.918  13.154  12.438  11.842
   16.408  15.770  17.270  15.936  14.379  14.922  14.025  15.540  14.028  13.639
   14.941  14.186  13.270  14.444  15.588  15.901  15.573  15.737  16.250  13.779
   13.996  13.494  14.542  14.482  15.143  14.312  15.099  14.085  11.204  11.704
   13.502  12.630  12.819  11.981   8.075  12.182  11.782  13.525  12.516  11.724
    9.757   9.161  11.121   8.629  12.810  11.206  12.884  13.492  11.695  12.865
    9.306   7.179   7.611   9.445  10.308   9.869   9.898  10.600  13.368  12.487
    6.496   5.858   4.309   8.563   8.464  10.288  10.078  11.682  12.291  14.822
    5.989   4.051   5.760   6.804  10.370  11.026  10.468  10.739   9.901  11.726

    0.800  10.592
   16.583  16.201  16.788  16.561  16.009  15.244  13.547  14.898  13.520  14.760
   15.350  17.786  15.607  15.845  13.851  13.397  12.896  13.023  12.887  12.790
   16.565  16.434  16.944  15.977  14.889  13.874  14.143  16.852  13.939  14.241
   14.755  14.072  13.701  14.433  16.217  15.547  15.442  15.468  16.198  13.828
   14.002  13.771  14.764  14.228  15.019  14.309  15.592  14.200  11.313  12.155
   13.547  13.121  12.508  11.728   8.161  11.531  11.547  13.538  12.828  11.794
    9.244   8.938  10.440   8.215  12.777  11.771  13.408  12.929  11.802  13.171
   10.044   7.048   6.974   9.855  10.806   9.729  10.284  10.388  13.236  12.501
    5.886   5.885   4.757   8.478   8.158  10.440   9.608  11.979  12.776  15.165
    5.835   4.122   5.681   6.460  10.765  10.939  11.567   9.940  10.872  11.449

    0.850  10.617
   16.416  15.765  16.900  16.894  15.295  15.435  13.429  14.136  12.979  15.564
   15.338  17.415  15.163  16.203  14.607  13.461  13.257  12.931  13.416  13.059
   16.664  16.087  17.122  16.099  15.274  13.812  14.272  16.519  13.922  13.936
   14.329  14.124  13.840  14.918  15.877  15.730  15.328  15.652  16.448  13.966
   14.348  13.267  15.047  14.245  14.383  14.422  14.823  14.720  11.556  12.965
   13.466  13.207  12.115  11.419   9.035  11.438  11.655  13.796  12.418  11.639
    9.763   8.693   9.711   8.184  12.928  11.951  12.780  12.916  12.220  12.876
   10.173   7.508   7.376  10.190  10.382   9.472  10.057  10.778  12.930  13.049
    5.945   5.963   4.474   8.570   8.071  10.737   9.592  11.657  12.373  15.282
    5.888   3.995   5.593   6.555  10.148  12.000  10.631  10.242  10.712  11.892

    0.900  11.218
   16.435  15.580  17.188  16.315  15.535  15.031  14.004  13.899  13.394  15.296
   15.708  17.140  15.368  16.530  15.286  13.590  13.735  12.711  14.147  12.792
   16.653  16.035  18.279  16.103  15.422  14.241  14.846  16.628  13.432  13.779
   14.369  14.116  13.525  16.027  16.620  16.389  16.438  14.971  16.270  13.503
   13.357  13.919  15.340  13.795  14.202  14.263  14.322  14.593  11.454  12.999
   13.047  12.989  12.568  11.854   9.515  11.023  12.070  13.919  11.958  12.123
   10.252   8.762   9.317   8.713  12.252  11.931  12.834  12.706  12.164  12.164
    9.939   7.666   7.874  10.253  10.312   8.714   9.578  11.454  12.892  12.351
    7.127   5.843   4.812   8.135   8.674  11.145   8.909  11.734  12.428  15.461
    5.468   4.607   5.948   6.748  10.214  11.752  10.828   9.803  10.467  11.563

    0.950  11.123
   15.939  16.331  17.068  16.135  16.025  14.924  13.644  13.691  13.967  14.969
   14.955  17.070  14.922  16.802  15.438  14.188  13.656  12.133  14.099  11.853
   16.615  16.036  18.819  15.680  15.778  13.983  14.288  15.833  13.469  14.925
   13.276  14.050  12.894  16.269  16.145  15.842  16.648  15.244  16.919  13.347
   13.556  14.313  14.667  13.272  14.277  14.103  14.008  14.310  11.551  13.287
   13.494  12.932  11.984  12.574   8.924  11.565  11.950  13.640  12.115  12.283
   10.256   9.583  10.011   8.918  12.980  11.524  12.909  12.348  12.131  12.100
   10.108   7.568   8.688  10.445  10.889   8.962   9.961  11.220  12.461  12.058
    8.125   5.712   5.920   8.631   8.356  11.563   8.813  12.246  12.515  15.640
    5.432   4.182   6.411   7.041   9.562  11.218  10.296  10.093  10.858  11.525

    1.000  11.410
   15.287  16.438  17.160  16.898  15.991  14.802  13.423  13.863  13.516  14.858
   14.851  17.694  15.218  17.163  15.847  14.827  13.284  10.954  14.109  12.314
   15.912  15.245  18.638  16.004  15.924  14.410  13.994  16.064  13.257  15.168
   13.359  13.995  12.441  15.343  16.344  15.520  16.775  14.694  16.690  13.501
   13.770  14.990  14.748  13.841  14.519  14.805  14.249  14.890  10.882  13.409
   13.376  13.228  11.977  12.574   8.741  11.820  11.417  13.537  12.942  12.405
   10.141  10.144  10.593   8.515  12.698  11.377  12.756  12.846  12.201  11.829
    9.784   7.778   8.995  10.468  10.220   9.540  10.497  10.948  13.227  11.609
    8.683   5.937   6.375   9.158   8.337  11.526   9.790  12.204  12.866  15.565
    4.929   4.842   7.118   6.720   9.980  11.664  10.210   9.476  10.727  11.292

    1.050  10.956
   15.561  16.749  17.306  17.105  15.986  15.591  13.287  14.266  14.022  14.824
   15.202  17.677  15.290  17.716  16.044  15.276  13.561  10.369  14.535  12.037
   15.684  15.901  18.895  15.887  15.698  14.158  13.594  15.856  13.697  14.465
   13.811  13.741  12.787  15.363  15.757  15.514  16.457  14.708  16.621  13.596
   13.268  14.457  14.904  14.659  14.485  15.441  15.049  13.811  11.095  13.858
   13.091  13.408  12.773  13.117   9.262  11.536  11.033  14.027  12.994  12.056
    9.950   8.950   9.941   8.866  12.255  11.071  12.973  12.537  12.316  11.964
   10.313   7.938   9.767   9.442   9.743   9.511  10.161  10.662  13.504  11.885
    9.061   6.306   6.346   8.953   7.760  11.616  10.080  12.240  13.312  15.826
    5.232   4.782   7.207   6.829   9.310  11.810   9.564   9.391  10.341  11.025

    1.100  10.494
   16.141  16.695  16.618  16.907  16.467  15.733  13.195  14.064  13.509  14.260
   15.375  17.358  16.144  17.604  15.428  15.392  14.126  11.259  14.550  11.829
   15.560  16.087  19.706  16.565  15.683  14.035  13.732  16.074  13.580  14.434
   14.139  14.287  12.844  15.121  14.753  15.299  15.907  15.394  16.295  13.562
   13.633  14.371  15.129  14.366  14.234  15.626  15.218  14.455  11.548  13.693
   12.924  13.908  12.700  12.530  10.401  12.120  10.606  14.204  12.749  12.372
    9.899   9.470  10.610   9.685  12.561  11.037  12.802  12.549  11.581  11.846
   10.500   7.654  10.717   9.674  10.303   9.708   9.989  10.686  12.445  11.750
    9.214   5.987   6.682   8.460   7.574  10.883  10.188  12.512  13.656  15.625
    5.033   4.449   6.878   6.625   9.364  11.961  10.066   9.858  10.354  11.403

    1.150  10.543
   16.733  17.177  16.474  16.970  16.542  15.571  14.336  14.495  13.561  14.185
   15.531  18.101  15.838  17.227  15.489  14.707  13.621  11.282  14.950  12.350
   15.665  15.713  19.990  16.211  15.490  14.565  14.247  16.074  13.610  13.964
   14.540  14.063  12.946  14.688  14.896  15.723  16.369  15.273  16.047  13.091
   13.558  14.770  15.510  12.996  13.921  15.709  15.886  14.832  11.648  13.679
   12.684  13.819  12.294  12.630  10.247  12.498  11.743  14.321  12.331  12.599
    9.763  10.347  11.413  10.449  12.585  10.697  12.551  12.814  11.745  12.218
   10.201   7.778  10.955   9.619  10.784   9.337  10.005  10.994  12.082  12.269
    9.134   6.442   7.012   8.941   8.585  11.173   9.668  12.351  14.323  15.772
    4.487   4.840   7.518   6.960   9.575  11.353   9.735   9.279  10.296  11.316

    1.200  10.579
   15.977  17.219  15.871  16.667  15.557  15.428  14.638  14.355  13.874  13.959
   15.150  18.117  16.141  16.755  15.714  14.813  13.543  11.454  15.166  12.451
   16.159  15.757  20.393  15.993  15.194  14.530  13.738  15.978  12.508  13.704
   14.658  14.604  12.399  14.899  14.977  15.281  15.840  15.021  16.142  12.954
   13.320  14.584  14.837  13.025  14.000  15.919  15.995  14.760  12.210  13.212
   12.914  14.141  11.871  12.486  10.389  12.402  11.926  14.333  12.052  12.893
   10.025   9.958  11.368   9.922  11.939  10.355  12.052  12.699  12.325  11.939
   10.531   7.786  10.830   9.368  11.013   9.589  10.652  11.100  11.838  12.428
    9.169   7.069   7.393   8.480   8.871  11.280   9.587  12.285  14.305  15.519
    4.357   4.745   7.230   6.416   9.062  11.504   9.681   9.432   9.933  12.003

    1.250  11.377
   16.165  15.926  15.441  16.694  16.042  15.155  14.299  14.037  13.736  14.600
   14.453  17.665  16.767  16.346  15.487  14.613  13.799  10.779  14.345  12.021
   16.248  15.573  19.457  15.338  15.069  14.515  13.647  16.079  12.994  13.195
   14.759  13.949  12.950  14.056  14.767  15.391  16.191  15.341  16.522  12.915
   13.497  14.767  15.133  12.908  14.375  16.364  16.376  13.838  13.040  12.688
   11.739  14.893  11.714  12.409  10.210  13.315  11.411  14.254  11.819  12.983
   10.169  10.044  11.159   8.927  11.951  10.476  11.945  13.315  11.980  12.688
    9.846   8.260  10.503  10.167  11.566   9.332  10.241  11.251  11.329  12.767
    8.658   6.891   7.330   8.604   8.796  11.189   9.860  12.656  14.415  15.467
    4.720   4.917   7.505   6.086   8.561  10.582  10.201   9.017   8.940  12.136

    1.300  11.518
   16.597  15.393  14.559  16.603  16.692  14.207  14.564  13.847  13.907  13.813
   14.999  17.472  17.141  16.154  14.880  14.131  13.413  10.889  14.458  11.500
   15.718  15.234  18.599  15.327  14.276  14.869  13.644  16.114  13.018  13.439
   14.359  14.182  12.947  14.051  14.719  15.479  15.957  14.750  17.552  12.787
   13.165  14.505  14.913  12.951  14.299  16.214  16.057  14.027  12.684  12.855
   11.340  14.359  12.008  11.832  10.236  13.277  11.407  13.771  12.136  12.637
    9.616  10.208  11.186   9.357  12.008  11.045  12.088  13.519  12.032  13.002
    9.747   8.237  10.261  10.026  11.609   8.765  10.272  11.171  11.300  13.347
    8.861   7.071   7.759   8.867   8.944  11.067  10.221  12.038  13.980  15.457
    4.282   4.067   7.805   6.051   8.936  10.136  10.587   9.734   9.246  12.807

    1.350  10.919
   16.765  15.145  14.794  16.528  16.635  14.137  14.406  14.429  13.799  13.466
   15.117  17.933  16.917  16.567  14.336  13.944  13.421  11.555  13.967  11.338
   15.086  15.259  18.406  15.649  14.050  14.906  13.445  15.711  13.361  13.657
   13.407  14.127  13.045  14.460  14.981  14.880  16.315  14.963  16.700  12.684
   13.103  14.284  14.740  13.224  14.253  16.145  15.565  13.784  13.261  13.035
   12.072  14.683  12.443  11.230   9.358  13.125  11.564  13.769  12.006  12.196
    9.496  10.869  11.050   9.268  11.735  10.648  11.848  13.015  11.457  12.255
    9.404   8.148  10.403   9.736  11.949   8.789  10.450  11.824  11.382  13.289
    8.879   7.310   7.857   8.759   9.943  10.859   9.718  11.982  13.558  14.975
    3.770   4.293   7.635   5.938   8.821  10.061  11.311  10.847   9.509  12.970

    1.400  10.887
   17.096  15.313  13.970  16.071  16.169  14.275  14.490  14.893  14.301  13.861
   15.911  18.427  16.541  16.563  14.179  13.193  13.173  10.990  14.359  11.943
   15.491  15.163  18.625  15.994  14.962  14.879  13.063  15.669  12.900  12.665
   13.467  14.255  12.786  14.390  14.817  15.247  16.131  14.844  16.619  12.602
   13.406  14.322  14.910  13.519  13.609  16.060  15.335  14.078  13.194  12.969
   11.645  15.348  12.025  10.710   9.212  12.968  11.684  13.410  11.772  12.143
    9.576  11.358  11.147   9.400  11.296  10.324  12.220  12.588  11.345  12.052
    9.350   7.307  10.372   9.651  11.872   8.351  10.470  11.191  11.226  13.126
    8.461   8.310   8.424   8.858   9.793  10.591   9.555  12.172  13.460  14.849
    4.281   3.857   6.831   6.117   8.909  10.025  11.866  10.680   9.630  12.458

    1.450  10.283
   16.468  15.804  14.857  16.867  16.735  14.183  14.276  15.246  13.897  13.879
   16.372  18.030  16.328  16.410  14.319  12.687  13.386  11.109  14.157  11.546
   15.338  15.224  17.815  16.039  15.280  15.254  13.244  15.594  12.781  12.355
   13.863  14.011  12.765  14.173  14.889  15.127  15.277  14.548  15.849  12.734
   13.192  14.903  15.821  14.132  13.582  16.352  15.197  13.900  13.728  14.094
   11.270  14.894  11.876  10.950   9.477  12.669  11.161  13.503  11.889  11.702
    9.532  11.742  11.637   9.994  10.982  10.390  12.514  12.770  11.587  12.096
    8.904   7.683  10.612   9.559  11.360   8.322  10.272  11.385  11.625  13.486
    8.854   8.364   8.818   8.810   9.129  10.308   9.313  11.406  13.444  14.856
    4.662   3.707   6.199   5.963   9.133  10.973  11.783  10.326  10.087  12.602

    1.500  10.360
   15.584  15.942  14.905  17.352  16.980  13.324  14.380  15.220  13.609  14.536
   16.132  17.945  16.171  16.446  14.401  12.509  12.284  10.435  14.325  11.666
   15.449  15.332  17.594  16.347  15.284  16.486  13.126  14.919  12.267  12.523
   13.365  14.385  13.307  13.503  15.264  14.430  14.972  14.764  15.415  12.889
   13.110  15.004  15.675  13.600  14.325  16.422  15.795  14.263  13.775  13.786
   12.098  15.627  12.621  11.123   9.756  13.320  11.671  13.060  11.956  11.678
    9.827  11.760  11.322  10.292  10.765  10.021  12.252  12.793  12.365  11.564
    8.803   7.422  10.810  10.033  11.374   8.291  10.264  12.023  11.874  13.260
    8.563   8.509   8.022   9.064   8.945  11.345   9.320  11.146  13.367  14.506
    4.360   4.274   6.445   5.887   9.160  10.960  12.042   9.576  10.030  12.579

    1.550  10.658
   14.932  16.154  14.676  17.457  16.649  13.540  14.734  15.169  14.139  15.196
   15.869  18.149  16.483  16.819  15.125  12.013  12.052   9.318  14.036  11.306
   16.175  14.917  17.605  17.151  15.518  16.143  13.420  14.851  12.213  12.948
   13.920  14.671  13.599  14.374  14.691  14.332  14.387  15.004  15.013  13.217
   13.001  15.356  15.640  13.539  14.569  15.388  15.775  14.041  13.257  13.081
   12.879  15.308  12.730  11.330  10.059  13.510  11.463  13.372  12.439  11.567
   10.137  11.322  10.228   9.860  10.534   9.366  11.233  13.130  12.456  12.110
    9.007   6.968  11.235  10.279  10.954   8.902   9.606  12.259  12.418  13.175
    9.018   8.334   7.904   9.912   8.268  11.994   9.505  12.029  13.010  14.873
    4.506   4.298   6.231   6.612   8.857   9.730  11.683   9.826  10.378  12.516

    1.600  11.120
   14.965  16.420  15.222  16.836  16.895  13.797  14.984  14.623  13.828  15.294
   15.225  17.049  16.676  16.120  15.260  11.587  11.678   9.840  13.615  11.052
   15.506  14.239  17.454  17.756  15.918  15.633  13.188  15.156  12.924  12.477
   14.470  15.089  13.302  14.818  15.377  15.030  14.688  15.723  14.833  12.960
   12.915  15.526  15.366  14.161  14.696  14.613  16.186  14.160  14.293  14.249
   12.573  14.639  13.124  11.457  10.058  13.558  11.429  12.732  12.467  11.244
   10.644  11.003  10.133   9.093  11.597   9.318  12.124  12.617  12.428  11.653
    8.490   7.136  11.686  10.642  10.962   9.637   9.570  11.335  11.637  13.546
    8.819   9.063   8.408   9.900   8.048  12.205   9.309  12.012  12.837  14.799
    5.000   5.040   7.030   6.706   8.678   9.766  11.232  10.107  10.269  13.245

    1.650  10.974
   15.244  16.498  15.639  17.185  16.697  14.510  14.351  14.033  13.914  15.511
   14.923  17.822  16.736  15.729  15.686  12.290  11.296  10.816  13.672  10.473
   15.476  14.579  17.691  17.111  16.438  15.445  13.227  14.849  12.066  12.085
   13.768  15.315  13.575  15.548  16.035  15.807  14.661  15.545  16.289  12.461
   12.969  15.262  14.605  13.616  14.688  14.722  15.620  13.980  13.988  14.669
   12.968  14.118  13.214  11.669   9.940  13.497  12.207  13.438  12.431  10.769
   10.097  10.264  10.191   9.189  11.843   9.525  12.333  12.215  11.976  11.065
    9.192   6.865  11.440  10.647  11.064   9.828  10.707  11.790  10.901  13.592
    8.431   8.682   7.585  10.251   8.417  12.305   9.740  11.212  12.615  14.532
    5.251   4.885   8.168   7.476   8.691   9.743  11.132   9.671  10.152  13.077

    1.700  10.123
   15.419  16.456  16.144  17.601  16.392  14.074  14.422  13.998  13.992  15.306
   15.268  17.942  15.702  15.905  16.006  13.121  11.896  10.861  13.321  10.350
   15.629  14.973  17.361  16.980  16.223  14.856  13.893  15.585  11.526  11.848
   13.725  15.355  13.118  15.331  16.261  15.710  14.494  15.664  16.200  12.376
   13.278  14.962  14.054  13.857  14.258  14.676  14.636  13.600  13.356  15.053
   12.487  13.096  12.670  12.349   9.812  13.328  12.734  13.672  12.740  10.561
    9.971  10.076  10.038   9.260  11.396   9.935  12.201  11.861  12.046  11.071
    9.359   6.833  11.120  10.579  10.766   8.969  10.842  12.163  11.268  13.317
    8.800   8.764   7.684  10.044   8.745  11.900   9.337  11.925  11.810  14.406
    4.915   5.027   8.066   7.803   8.636   8.913  11.325   9.926  10.033  12.910

    1.750  10.235
   15.525  16.905  16.390  17.872  16.674  14.733  14.790  14.302  14.082  15.297