
This full-field turbulence file was generated by TurbSim (v1.40, 12-Sep-2008) on 21-May-2021 at 12:51:33.

 | w-comp |  Y  x  Z  | Grid Resolution (Y x Z) | Time-step | Hub Elev | Mean U |
            10    10     15.556     15.556          0.050      80.00     19.00

 Z Coordinates (m):
  -70.000 -54.444 -38.889 -23.333  -7.778   7.778  23.333  38.889  54.444  70.000

 Y Coordinates (m):
  -70.000 -54.444 -38.889 -23.333  -7.778   7.778  23.333  38.889  54.444  70.000

    0.000   0.046
    1.219   0.132  -0.752  -0.340   0.445   0.750  -0.626  -0.893   0.367   1.246
    0.215   0.498   0.965   0.137   0.416   1.020   1.138  -0.841   0.069   2.083
   -0.405  -2.261  -1.250  -1.245  -0.834   1.844   0.451  -0.294  -1.698   0.050
   -1.062   0.721  -0.653   0.367  -1.940  -0.315  -0.111   1.997  -1.372   0.511
   -1.572   0.998   0.056   0.434   0.118  -0.044   0.250  -0.202   1.297  -0.505
   -1.391   1.467  -0.477  -0.532  -3.564  -1.533  -2.019  -1.028  -0.921   0.808
    0.139   2.307   0.436   0.859  -0.927  -1.652  -2.058   0.379   3.216  -0.547
   -0.828   0.722  -0.205   0.866   1.676   0.174   1.409   1.645   0.682  -1.015
    1.422   1.441  -2.442  -0.082  -2.051   0.306   1.820   0.636   0.573   0.473
   -2.532   1.334   0.595  -1.516  -0.428   2.151   0.636  -0.486   2.008  -0.922

    0.050  -0.530
    1.098  -0.114  -0.385  -0.397   0.271   0.343  -1.819  -1.585   0.268   1.313
   -0.713   0.309  -0.089   0.161  -0.798  -0.261   0.506  -0.967   0.053   2.221
   -0.361  -1.486  -0.754  -1.385  -0.901   2.131  -0.284   0.280  -1.124  -0.369
   -1.479   0.705  -1.036   0.477  -1.309  -0.314  -0.466   1.214  -0.631   0.909
   -1.496   1.298  -0.367  -0.184  -0.076   1.544  -0.644   1.471   0.700   0.791
   -0.557   1.557  -0.708  -0.725  -3.933  -1.042  -2.598  -1.682  -0.935   0.879
    0.567   2.546   0.752   1.245  -0.903  -1.057  -1.775   0.047   3.395  -0.629
   -1.246   1.233   1.090   0.113   1.794  -0.115   1.155   1.874   0.024  -1.242
    2.129   1.602  -1.554  -1.249  -2.566  -0.688   0.058   1.261   0.414  -0.037
   -2.074   1.184   0.318  -0.992   0.002   1.711   1.299  -0.100   0.967  -1.403

    0.100   0.592
    0.669  -0.426  -0.347  -0.080  -0.135  -0.502  -1.285  -0.442  -0.347   1.696
    0.561  -0.298  -1.261  -0.031  -0.134   0.241  -0.065  -0.428  -0.642   1.871
   -0.067  -1.208  -0.456  -1.074  -0.526   1.733   0.521   0.596  -1.423   0.644
   -1.213   0.715  -0.578   0.983  -1.227  -0.436  -0.484   1.588  -0.276   0.587
   -1.499   1.197  -0.376   0.278  -1.102   2.145  -0.487   0.767   1.314   1.607
   -0.754   1.194  -1.235  -0.874  -3.453  -1.870  -1.521  -0.188  -0.270   1.292
    0.431   2.573   0.248   0.785  -1.724  -0.367  -2.001  -0.405   2.771  -0.629
   -1.893   1.486   1.178  -0.250   0.898  -1.505   0.449   1.256  -0.291  -0.612
    1.686   1.803  -1.351  -1.334  -1.393  -1.239  -0.964   0.954   0.466   0.592
   -1.659   1.194   0.723  -0.744  -0.223   2.111   1.787  -0.864   0.842  -1.133

    0.150   1.548
    0.220  -1.394  -0.491  -0.190   0.105  -1.307  -1.579  -0.130  -0.157   1.792
    0.555   0.051   0.029   0.252   0.146  -0.502  -0.601  -1.095  -0.419   1.921
   -0.064  -0.405  -0.090  -0.235  -1.231   1.996   0.494   0.870  -1.752  -0.793
   -1.301   1.803  -0.373   1.560  -1.884   0.898  -0.801   2.417   0.407  -0.387
   -1.899   0.592  -0.835   0.837  -0.853   1.579   0.239   0.346   1.008   1.022
   -1.181   0.653  -1.266  -0.936  -2.335  -2.235  -1.858   0.307  -0.214   2.097
    0.525   2.744   0.983  -0.032  -1.140  -0.245  -2.467  -0.790   2.741  -0.103
   -2.216   1.186   0.135  -1.231   1.456  -1.141   0.863   0.891  -0.300  -0.478
    1.411   0.465  -1.834  -0.944  -0.989  -1.767   0.249   1.852  -1.172   0.651
   -1.401   2.148   1.257   0.330  -0.816   1.320   1.535  -1.392   1.286  -1.119

    0.200   1.828
    0.888  -1.278  -0.460  -0.145  -0.988  -1.453  -1.982  -0.538  -0.310   1.961
    1.112  -0.598  -0.170   0.729  -0.064  -0.420  -0.453  -0.428  -0.271   2.419
    0.499   0.161  -0.548  -0.403  -0.530   1.736   0.652   1.459  -2.053  -0.454
   -1.813   1.821  -0.614   1.075  -0.936   0.775  -1.153   2.125   0.364  -0.372
   -1.325   1.285  -0.886   0.793  -0.251   1.802   0.865   0.224   0.834   1.634
   -1.373   0.799  -1.927  -1.592  -2.150  -1.760  -2.650   0.461  -0.454   1.924
    0.980   2.110   1.749   0.371  -1.517   0.094  -1.532   0.314   2.947   0.036
   -2.314   2.165   0.679  -1.900   1.808  -1.432   1.408   0.940   0.197  -1.006
    1.754   0.294  -1.455  -2.176  -0.077  -1.878  -0.122   2.240  -0.348   0.583
   -1.163   1.844   1.605   0.792  -0.511   1.482   0.809  -0.457   0.571  -0.138

    0.250   2.141
    0.013  -1.701  -0.818  -0.545  -0.994  -1.680  -1.680  -0.497  -0.619   1.413
    0.800  -0.621  -0.843   0.266   0.073  -0.790   0.428  -0.405  -1.566   3.191
    0.682   0.201  -0.644   0.294  -0.704   1.858   0.575   1.242  -1.861  -0.456
   -2.356   2.037  -0.472   1.837  -0.076   1.014  -0.928   1.307  -1.218  -0.162
   -0.828   1.915  -0.968   0.245  -0.226   1.041   1.364   0.110   0.133   1.410
   -0.372   0.785  -1.183  -1.067  -1.578  -1.185  -1.613   0.394  -0.191   2.445
    0.306   1.793   2.040  -0.006  -1.044  -0.218  -1.485   0.721   2.827  -0.081
   -1.348   1.848   0.801  -0.349   0.924  -1.780   1.683   1.076  -0.178  -0.639
    2.239   0.956  -1.167  -1.540   0.488  -1.695   0.047   2.308  -0.087   0.255
   -0.680   0.888   1.124   0.871  -0.819   1.736  -0.467  -0.212  -0.263   0.505

    0.300   1.323
    1.385  -1.389  -0.088  -1.233  -0.442  -1.517  -0.732  -0.037  -1.934   0.572
    0.385  -0.733  -1.738   0.498   0.123  -0.543  -0.122  -1.316  -1.281   2.303
    0.453  -0.266  -0.137   0.302  -0.973   2.711   1.757   1.038  -1.431  -0.862
   -2.137   2.280  -0.454   2.180  -0.659   0.113  -0.331   1.307  -2.486  -0.374
   -1.414   2.089  -0.297   0.507  -0.647   1.338   2.008  -0.215   0.130   0.712
    0.912   0.697  -1.153  -0.623  -2.527  -0.385  -0.490  -0.022  -0.675   1.670
    0.857   1.022   1.626   0.594  -0.969  -0.584  -1.287   1.009   3.029   0.818
   -0.788   0.532   1.138  -0.081   0.700  -1.118   1.513   0.805  -0.310   0.322
    1.300   0.373  -0.899  -1.134   0.168  -1.465  -0.475   1.774  -0.184   0.567
   -1.081   0.972   1.329   0.534  -0.324   2.001   0.282   0.109  -0.327   0.329

    0.350   1.145
    1.454  -1.434   0.763  -0.934   0.213  -1.490  -0.648   0.259  -1.604   0.971
    0.950  -1.016  -1.863  -0.103   0.972  -0.597  -0.676  -0.578  -0.703   2.309
    0.389  -0.103   0.072   0.920  -0.542   2.245   0.948   0.307  -1.386  -0.330
   -1.728   1.719  -0.922   1.476  -1.143   0.175  -0.753   1.144  -3.776  -0.627
   -1.936   1.638  -0.612   0.152  -1.023   1.728   1.716  -1.168   0.317   0.132
    0.332   0.739  -1.301  -0.556  -2.126  -1.218  -1.742   0.529  -1.162   0.995
    0.487   0.325   1.939   0.798  -0.675  -0.475  -0.857   1.187   3.291  -0.861
   -0.878   0.077   0.242  -0.297   0.309  -1.410   1.622   1.796  -0.412   0.968
    1.086   1.247  -0.428  -1.257   0.595  -0.967   0.222   1.921   0.298   0.880
   -0.838   1.214   1.062   0.124  -0.397   1.626   0.504  -0.216  -0.485   1.078

    0.400   1.878
    0.583  -1.824   0.207  -1.315   1.463  -1.552  -0.389  -0.310  -1.789   0.520
    0.011  -0.920  -1.343  -0.467   0.834  -0.946   1.209  -1.442  -0.699   2.782
    0.755  -0.075  -0.854   0.145  -0.383   1.776   1.252   0.179  -1.757  -0.743
   -1.740   1.576  -1.264   2.237  -0.129   0.139  -1.108   0.441  -3.297   0.242
   -1.225   1.312  -1.030   1.873  -0.641   1.388   2.154  -1.991   0.351  -0.193
   -0.168   0.970  -1.071   1.127  -1.494  -1.282  -1.717   0.001  -1.246   0.288
   -0.224  -0.038   1.885   1.273  -0.606  -0.633  -1.178   0.448   3.855  -0.765
   -1.759   0.319   0.020  -0.495   0.218  -1.052   1.725   0.423  -1.069   1.090
    0.489   1.843  -0.619  -1.378   0.678  -1.124   0.163   1.870  -0.359   1.080
   -1.492   0.307   0.177  -0.573   0.374   0.937  -0.082  -1.341  -0.764  -0.101

    0.450   1.271
    0.946  -0.573   0.125  -1.222   2.193  -1.512   0.878   0.172  -2.035   0.768
   -0.835  -0.566  -0.887  -1.301   0.896  -0.620   2.096  -1.131  -0.645   2.833
    0.778  -0.316  -0.975  -0.824  -1.012   1.540   2.380   0.238  -0.659  -0.479
   -2.641   1.638  -0.286   2.006  -0.353  -0.291  -1.157   0.432  -2.554  -0.096
   -0.158   0.829  -0.401   2.347  -0.344   1.350   2.625  -1.266   0.316  -0.336
   -0.507   1.055  -1.337   0.502  -1.465  -0.678  -0.271   0.320   0.000   0.662
   -0.175  -0.405   1.506   1.273  -0.455  -0.915  -0.539   0.261   2.784  -0.463
   -2.387   0.404   1.021  -0.954  -0.183  -0.940   1.985   0.608  -0.425   0.549
    0.094   2.567   0.391  -1.206   0.717  -1.273  -0.031   1.744  -0.352   1.509
   -1.214   1.067   1.097  -0.575  -0.175   1.764  -0.691  -1.167  -1.061  -1.515

    0.500   0.232
    0.295  -0.491   0.052  -0.422   2.586  -1.057   0.475  -0.160  -2.857   1.887
   -0.934   0.441  -0.146  -1.339   0.764  -1.013   2.580  -0.783  -0.899   1.926
    0.189  -0.227  -1.501  -0.697  -0.821   1.634   2.339   0.117  -0.596   0.161
   -2.896   1.866  -0.556   2.552  -0.609  -1.140  -1.272   0.364  -1.815   1.213
    0.135   0.907   0.032   2.568  -0.821   1.603   2.376  -1.135  -0.186  -0.230
   -0.552   1.488  -2.626   1.031  -0.273  -0.531  -0.624   0.473   0.081   0.845
   -0.211   0.726   1.174   1.684  -0.449  -1.114   0.024  -0.985   2.135  -1.572
   -1.972   1.135   0.368  -0.401  -0.761  -0.496   2.233   1.096  -0.611   0.868
   -0.401   2.273   0.107  -1.906   0.192  -1.404   0.165   1.008  -0.523   0.507
   -1.670   1.027   1.113   1.048   0.142   2.028  -1.563  -0.739  -1.344  -0.999

    0.550   0.696
   -0.207  -1.261   0.346  -0.036   2.849  -0.445  -0.269   0.472  -2.396   2.810
   -0.932   0.487  -1.162  -0.202   0.373  -1.471   3.020  -0.662  -0.996   1.381
   -0.062  -0.049  -0.820  -0.315  -1.921   1.121   2.932  -0.798  -1.138  -0.300
   -2.477   1.456  -1.055   3.042   0.363  -1.605  -1.245  -0.153  -1.079   1.145
    0.193   1.243  -0.521   2.372  -0.157   1.217   2.454  -0.617   0.078   0.003
   -0.709   0.838  -2.323   1.008  -0.396  -1.157  -1.465  -0.115   0.201   0.775
    0.139   0.426   1.056   0.705  -0.528  -2.678  -0.596  -1.585   1.815  -1.190
   -2.365   1.158   0.668  -0.236  -0.882   0.044   2.858   0.479  -0.723   0.157
   -0.587   2.481   0.546  -1.674  -1.249  -1.160   0.141   1.163  -0.908   0.353
   -1.473   1.122   0.973   2.178  -0.255   2.463  -2.179  -0.411  -2.180  -0.857

    0.600   1.139
   -0.453  -2.294   0.512   0.100   2.567  -0.141   1.054   0.584  -2.583   2.756
   -0.708  -0.546  -0.798  -0.362  -0.697  -1.139   2.734  -1.341  -1.237   1.684
    0.334   0.038  -1.002   0.156  -1.654   0.316   2.019  -1.102  -1.146   0.379
   -3.283   2.063  -0.870   3.304  -0.148   0.159  -0.513   0.185  -0.829   1.521
    0.265   0.311  -0.370   2.836   0.156   2.055   2.798  -0.106  -0.397  -1.398
    0.251   0.033  -2.461   0.813  -0.510  -0.161  -0.833   0.371  -0.465   0.512
   -0.071   0.355   1.311   0.549   0.226  -3.399  -0.996  -2.542   0.720  -1.581
   -2.275   0.789   1.091  -0.569   0.081  -0.131   1.883   0.842   0.498   0.430
   -0.869   2.202   0.533  -0.261  -1.372  -0.368   0.267   1.792  -1.189   0.317
   -1.129   0.759   1.504   1.295  -0.911   2.116  -2.895  -0.426  -1.284  -0.718

    0.650   1.370
   -0.904  -1.588   0.069   0.289   2.249   0.641   0.526   0.155  -2.844   1.668
    0.431  -1.421  -1.607  -0.701   0.262  -1.288   2.612  -1.098  -0.242   1.406
    0.663  -0.070  -1.344   0.217  -1.164   0.694   1.195   0.063  -1.431  -0.072
   -2.811   2.411  -0.433   2.427  -0.127   0.453  -0.415  -0.499  -1.378   1.193
   -0.539  -0.223  -0.769   3.382  -1.215   0.905   1.883   0.572  -0.046  -1.494
   -0.053  -0.201  -1.351   1.579  -0.934  -0.155  -1.335   0.774  -0.662  -1.044
   -0.398   1.392   1.741   0.189   0.399  -2.749  -1.211  -2.027   0.065  -2.155
   -3.130   0.029   0.513   0.062   0.997   0.026   1.771   0.643   1.322  -0.087
   -0.485   2.115   0.576   0.117  -1.597  -1.269   0.073   1.124  -1.125  -1.264
   -0.909   0.024   2.439   1.680  -0.914   1.748  -1.089  -0.543  -1.486   0.262

    0.700   1.228
   -1.510  -0.639   0.660   0.730   1.422  -0.151   0.205  -0.850  -2.417   0.801
   -0.358  -0.933  -0.864  -0.809  -0.014  -0.897   2.597  -1.369  -0.997   1.560
    0.909  -1.459  -0.692  -0.194  -1.036   1.125   2.234   0.741  -1.344   0.301
   -1.837   2.543  -1.013   3.133  -0.639   0.563   0.368  -0.402  -1.412   0.168
   -1.007   0.139  -0.108   2.262  -1.011   0.828   1.332   0.631   0.297  -1.463
   -0.361   0.151  -0.394   1.374  -0.929  -1.026  -0.193   1.519  -0.536   0.305
    0.038   1.520   3.066   0.520   0.933  -2.737  -1.038  -0.366   0.489  -2.806
   -3.071   0.045   0.272   0.123   1.044  -0.637   1.297   1.740   1.310   0.057
    0.078   1.372  -0.525  -0.136  -1.743  -0.899   1.069   0.945  -1.731  -1.054
   -0.883   0.139   2.943   2.648  -1.275   1.824  -1.440  -0.797  -1.292  -0.037

    0.750   1.341
   -1.381  -0.961  -0.241   1.305   2.334  -0.275  -0.075  -0.733  -2.196   0.408
    0.512  -1.026  -0.794   0.287  -0.287  -1.290   2.505  -0.801  -1.467   1.710
    1.700  -1.335  -0.746  -0.326  -1.390   0.766   2.094   1.111  -1.762   0.164
   -1.839   1.925  -1.896   3.968  -1.135  -0.454   0.201   0.830  -0.608  -0.298
   -1.401   0.413   0.995   2.681  -1.162   0.476   1.447   0.375  -0.052  -1.129
    0.361   0.637  -0.281   1.718  -1.357  -2.082  -0.284   1.543  -0.050   0.943
    0.630   1.551   2.990   1.182   0.151  -2.361  -0.699   0.241   0.658  -2.457
   -1.990   0.936  -0.636   0.148   0.685  -0.078   1.774   1.762   1.102  -0.373
    0.924   0.660  -0.620   1.158  -1.545  -0.691   0.054   0.866  -2.214  -0.818
   -0.832   0.831   2.056   0.441  -1.061   1.261  -1.146  -1.121  -1.702   0.209

    0.800   1.409
   -1.031  -0.989  -0.155   0.335   2.069   0.111  -0.119   0.777  -1.517   1.283
   -0.831  -0.509  -0.849  -0.414  -0.450  -0.880   2.516  -0.802  -1.245   1.231
    1.099  -1.660  -1.254  -0.876  -1.420   0.966   1.914   2.001  -0.879   1.005
   -2.159   0.913  -1.187   4.535  -1.368   0.619   0.136   0.896  -0.717  -0.822
   -0.327   0.754   0.605   2.608  -0.647   0.434   0.978   0.440  -0.411  -1.175
    0.484   0.162  -0.374   0.895  -1.192  -1.461  -0.328   0.493   0.789  -0.375
    0.405   1.806   3.731  -0.123   0.576  -2.063  -0.410   0.766   0.327  -1.809
   -1.370   1.583   0.437  -0.297   0.642  -0.935   0.844   1.396   0.091  -1.322
    0.900   1.109  -0.291   0.308  -0.113  -1.190   0.341   0.399  -1.822   0.081
   -0.374   1.347   0.972   0.733  -0.890   1.954  -1.238  -2.072  -1.437   1.108

    0.850   1.848
   -0.798  -0.832  -0.284   0.089   2.073  -0.246   0.912   0.817  -2.676   1.913
   -1.387  -0.559  -0.316  -0.766  -1.108  -0.324   1.858  -1.351  -0.770   1.469
    1.547  -1.624  -0.650   0.574  -0.158   0.435   0.311   2.335  -0.945   0.807
   -1.481   0.837  -1.204   3.613  -0.797   1.265  -0.749   0.679  -0.433  -1.235
    0.403   0.662  -0.033   1.078   0.440   0.240   0.287   0.682  -0.300  -0.436
    0.770  -0.067  -0.859   0.203  -1.270  -0.665  -0.136   0.115   1.337   0.742
    0.188   1.961   3.079   0.629   1.854  -1.477  -0.786   0.562   0.146  -1.050
   -2.053   0.969   1.249  -0.736   0.375  -0.925   0.442   1.308   0.227  -1.491
    1.288   1.251  -0.549  -0.427   0.697  -0.997   1.020   0.521  -0.470  -0.554
   -1.583   1.355   0.644   0.968  -0.793   1.555  -1.807  -1.947  -1.704   1.967

    0.900   1.596
   -0.620  -1.267  -1.110   0.412   1.759  -0.041   1.894   0.447  -2.344   1.005
   -1.695  -0.694   0.071  -0.048  -0.463  -0.482   0.272  -2.074  -1.751   1.146
    1.766  -2.414  -0.166  -0.802   0.677   1.179  -0.323   2.853  -1.298   0.654
   -2.069   0.622  -1.257   3.531   0.542   0.978  -1.059   0.814   0.829  -0.745
   -0.049   0.797  -0.015   1.884   1.136   0.560   0.311   0.339  -0.173  -1.144
    0.503  -0.478  -1.135  -0.076  -1.351  -1.243   0.526   0.180  -0.128   1.525
    0.309   1.117   2.790   0.886   1.900  -1.436  -0.361   0.338  -0.186  -0.410
   -2.711   1.019   0.924  -0.328   0.634  -1.460   0.400   1.445  -0.241  -1.080
    2.413   0.293  -0.875   0.510   0.529  -1.048   0.908   0.710  -0.459  -0.921
   -0.959   1.891   1.853   0.419  -1.293   0.804  -2.138  -1.266  -1.982   1.788

    0.950   1.605
   -0.027  -1.580  -1.503  -0.072   1.823   0.068   1.951   0.387  -1.219  -0.084
   -0.893   0.509  -0.441   0.287  -0.684  -0.586   1.228  -2.119  -1.933   0.968
    1.345  -2.117  -1.310  -1.401   0.214   1.693   1.280   3.713  -0.710   1.077
   -2.300   0.808  -2.904   3.627   0.881   0.934  -0.275   0.363   0.207   0.877
   -0.916   0.661  -0.399   2.204   1.757   0.301   0.362   0.935  -0.381  -1.850
    0.734  -1.092  -0.802  -0.301  -2.377  -0.009   0.443   0.226  -1.012   2.254
    0.157   1.775   2.452   1.298   0.753  -0.657  -0.262   0.434  -0.575   0.144
   -3.134   0.922   1.066  -0.395   0.442  -1.760   0.839   1.669  -0.591  -1.263
    1.748  -0.031  -0.243   0.853   0.297  -1.778  -0.353   1.244   0.207  -0.664
   -0.788   1.536   1.766   0.399  -0.865   0.344  -2.138  -0.670  -1.002   1.413

    1.000   1.965
    0.477  -2.014  -1.521  -0.503   2.654   0.532   2.076   1.264  -1.945   0.392
   -1.274   1.237  -0.654  -0.028  -0.838   1.136   1.287  -2.039  -1.652   1.183
    0.496  -1.207  -1.294  -0.429   1.314   2.841   1.101   3.183  -1.443   2.227
   -1.819   2.006  -3.968   3.610   0.537   1.218  -1.529   0.440   0.614   0.307
    0.138   0.830  -0.369   2.149   1.369   0.675   1.103   1.130  -1.109  -1.344
   -0.535  -1.090  -0.935  -0.253  -3.634  -0.902  -0.127   0.931  -1.553   2.311
    0.506   1.409   2.856   1.399   0.353  -1.267  -0.592   1.287  -0.738   0.580
   -3.297   0.705   0.201   0.169   0.906  -2.719   0.716   1.363  -0.146  -1.270
    1.242   0.098   0.006   0.581   0.167  -2.460  -0.483   0.089  -0.669  -0.570
   -0.416   1.409   1.620   0.315  -0.364  -0.702  -3.866  -0.005  -1.430   0.972

    1.050   2.169
   -0.195  -1.739  -1.016  -0.142   1.367   0.590   0.432   0.928  -1.901   2.099
   -1.809   1.042  -0.956  -0.738   0.195   0.693   2.421  -1.860  -1.059   1.343
    0.234  -0.647  -0.879   0.152   0.842   3.252   1.775   2.748  -1.373   2.668
   -2.191   1.455  -3.982   2.746   0.561   1.830  -1.149  -0.027  -0.428  -0.008
   -0.099   0.751  -0.499   0.912   1.416   1.361   0.310   1.138  -0.364  -1.137
   -0.226  -0.318  -0.331  -0.532  -3.451  -1.917   0.610   0.354  -2.013   2.038
    0.937   0.588   2.428   0.500   1.314  -1.212  -0.824   1.429  -0.450   0.751
   -3.995   0.438   0.310  -0.564   1.440  -3.370   0.531   1.452   0.022  -0.887
    1.690   1.003  -0.361   0.595  -0.053  -2.589  -0.428   0.069  -1.900  -1.049
   -0.784   2.135   2.203  -0.904  -1.037  -0.307  -3.412   0.279  -1.846   0.199

    1.100   1.646
   -0.620  -1.354  -1.050  -0.588   1.296   0.499   1.213   0.179  -1.218   2.361
   -1.253   0.641  -0.774  -2.031   0.801   1.508   2.599  -1.262   0.312   1.572
   -0.650  -0.466  -0.188   1.265  -0.082   2.734   1.757   3.243  -0.576   2.500
   -1.625   2.056  -3.945   2.496   0.389   2.323  -1.472  -0.888  -0.328   0.265
   -1.056   1.078  -0.061   0.735   1.030   1.478   0.394   1.368  -0.533  -0.556
    0.760  -0.108  -0.780  -0.017  -3.044  -0.967  -0.420   1.434  -1.606   1.974
   -0.307   0.317   1.534   0.291   0.937  -1.280  -1.297   0.977   0.047  -0.388
   -4.284   0.198   0.906   0.358   1.527  -2.560   0.016   1.778   0.347  -1.154
    2.134   1.049  -0.397   0.138  -0.230  -2.785  -0.651  -0.362  -1.414  -0.819
   -0.760   2.850   2.396  -0.995  -1.104  -0.036  -3.972  -0.410  -1.875   0.933

    1.150   1.588
   -0.534  -0.914  -0.551  -0.785   1.473   0.243   1.493   0.304  -0.933   1.329
   -0.892   0.468  -1.333  -0.957   0.576   0.967   1.068  -0.907  -0.380   1.147
   -0.690  -1.718  -0.285   0.999   1.518   1.356   1.224   2.857   0.308   2.919
   -1.351   2.581  -3.699   2.041  -0.295   2.186  -2.028  -1.465  -0.912   0.148
   -0.233   1.798  -0.419   0.290   1.174   0.658  -0.106   1.258  -0.930  -0.929
    0.549   1.517  -0.546   0.869  -3.437  -0.778   0.747   1.743  -1.988   2.457
   -0.697   0.529   0.806  -0.105   0.113  -0.604  -1.966   0.790  -0.692  -0.751
   -3.876  -0.778   1.562   1.019   1.296  -1.539  -0.352   1.071   0.412  -0.650
    1.710   0.513   0.118   0.080   0.562  -2.048  -0.855  -0.606  -0.596  -0.207
   -1.665   2.651   2.117  -1.623  -1.662   0.366  -2.986   0.002  -0.331   1.124

    1.200   0.513
   -0.574  -1.816  -0.647   0.082   1.708  -0.443   0.648  -0.057  -1.518   1.562
   -2.285  -0.059  -0.629  -0.827   0.102   0.359   0.274  -1.669   0.145   0.628
   -0.372  -2.961  -0.313   0.842   1.240   1.709   1.832   3.182   0.644   3.738
   -1.211   3.042  -3.576   1.654  -0.883   2.072  -2.200  -2.301  -1.386  -0.566
    0.556   2.381  -0.500   1.078   0.464   1.591   0.040   1.680  -1.928  -0.301
    1.288   1.780  -0.139   0.666  -2.435  -0.003   1.848   1.490  -1.518   2.386
   -1.480   1.204   0.844   1.064   0.343  -1.113  -1.869   0.561  -0.396   0.040
   -4.355  -1.476   1.128   1.390   0.907  -1.019  -1.233   1.331   1.022  -0.884
    1.888   1.566   0.161   1.238   2.134  -1.891  -0.434  -1.239  -0.313  -1.796
   -2.911   2.562   1.866  -1.907  -2.007   0.521  -2.369   0.052   0.616   0.573

    1.250   0.322
   -0.791  -1.069  -0.532   0.251   2.482  -0.652   0.420   0.987  -0.873   1.429
   -1.824  -0.846  -0.175  -0.262   0.871  -0.597  -0.695  -1.434   0.776   1.197
   -0.867  -3.059  -0.459   0.141  -0.592   2.020   2.326   2.933   0.740   3.111
   -1.192   2.934  -4.580   1.753  -1.670   1.722  -1.349  -2.243  -0.670  -0.486
   -0.065   2.693  -1.226   0.840   0.409   1.909  -0.226   1.981  -1.633  -1.075
    1.766   1.399  -0.144  -0.693  -1.744  -0.890   1.840   1.214  -1.332   2.953
   -0.934   0.530   1.245   1.641   1.201  -1.864  -0.379   0.384   0.172  -0.076
   -3.964  -1.285   1.629   0.263   1.843  -1.817  -0.711   1.039   2.188  -0.278
    1.603   2.106   0.718   1.047   1.902  -0.437  -0.571  -0.689  -1.037  -1.381
   -3.167   1.779   1.370  -1.297  -2.436   0.189  -2.572  -0.168  -0.378   1.012

    1.300  -0.613
    0.064  -1.840  -0.143  -0.914   2.020   0.091   0.915   1.061   0.269   1.530
   -1.469  -0.583  -0.318   1.051   0.252  -0.245  -0.576  -1.192   0.741   2.180
   -1.369  -2.094  -0.943  -0.345   0.055   2.572   2.073   2.669   0.544   2.993
   -0.309   2.048  -4.183   1.078  -2.550   1.731  -1.373  -1.322  -1.630  -0.525
    0.106   2.158  -0.058   0.408   0.613   1.545   0.127   2.747  -1.272  -0.214
    1.004   2.039  -0.158  -0.443  -1.963  -1.610   0.078   1.236  -1.060   1.742
   -1.796   1.352   0.524   1.447   0.653  -1.261   0.125  -0.087   0.882  -0.866
   -3.448  -1.822   0.897  -0.210   1.877  -1.386   0.131   0.457   1.516   0.236
    1.735   1.921   1.146   0.599   1.425  -1.247  -0.894  -0.193  -0.898  -0.628
   -3.398   1.654   1.973  -1.344  -2.742  -0.281  -1.532   0.004  -0.686   0.487

    1.350  -0.100
   -0.884  -0.673  -1.347  -1.361   1.708  -0.455   0.615   1.174  -0.123   2.001
   -1.763  -0.843  -0.862   1.607   0.144  -0.655   0.977  -0.835   0.934   1.347
   -0.484  -2.064  -0.337  -1.557   1.022   2.673   2.041   2.584   0.657   2.028
   -0.121   2.956  -3.682   0.809  -1.420   1.543  -1.418  -2.004  -2.008  -0.123
    0.436   2.006   1.209   0.913   0.358   1.939  -0.417   3.590  -0.348  -0.108
    0.355   1.388  -1.088  -0.093  -2.606  -1.492  -0.852   1.628  -0.747   2.383
   -1.109   1.385  -0.084   0.437   0.589  -1.378  -0.532   0.146   0.391  -0.811
   -3.508  -0.924   1.332   0.587   2.765  -1.562  -0.349   0.664   2.485   0.729
    1.908   3.121   1.224   0.887   1.196  -1.928  -1.544   0.125  -0.706  -0.806
   -3.806   1.834   2.295  -1.662  -2.591  -0.774  -1.533  -0.355   0.769   0.106

    1.400   0.231
   -1.066  -1.407  -1.359  -0.960   2.234  -1.771   0.458   1.675  -1.339   1.775
   -1.718  -1.540  -0.459   1.740  -0.668   0.783  -0.524  -0.674   0.495   1.361
   -0.660  -1.869  -0.758  -1.326   0.669   2.701   1.925   2.264   1.590   1.727
   -0.517   3.639  -3.669  -0.723  -0.579   1.429  -0.970  -2.452  -0.814  -0.583
   -0.099   1.400   1.362   1.391   0.934   1.783  -0.127   2.729  -0.246   0.423
    0.972   0.959  -1.556  -0.133  -2.582  -0.758   0.123   1.907  -0.340   2.956
   -0.800   2.158   0.564   0.180   0.685  -1.537   0.345   0.876   0.756  -1.650
   -3.689  -1.510   1.374  -0.404   2.339  -2.194  -0.562   0.818   2.908   1.491
    1.314   3.232   0.662   0.639  -0.068  -2.449  -0.639   0.211  -0.876   0.051
   -3.865   0.661   1.877  -1.661  -1.436  -1.362  -2.364  -0.297   0.997  -0.793

    1.450   0.075
   -0.731  -1.475  -2.187   0.112   1.472  -0.180  -0.037   1.528  -1.568   1.657
   -1.291  -0.753  -0.398   1.260  -0.591   0.541  -0.055  -0.127  -0.272   1.702
   -0.801  -2.443  -0.316  -0.835   0.829   2.608   1.361   1.571   1.418   3.310
    0.199   3.719  -3.335  -0.176   0.006   0.964  -0.651  -1.504  -1.031   0.511
    0.754  -0.345   1.832   0.612   0.108   1.545   0.101   1.648   0.260  -1.144
    1.632   0.331  -2.011  -0.236  -1.726  -0.980   1.047   1.861  -0.329   1.826
   -0.543   1.573   0.249   1.257   1.646  -1.094   0.231   1.195   0.417  -1.708
   -4.384  -1.102   1.495  -0.385   2.240  -1.497  -0.795   0.848   2.853   0.243
    1.318   2.648   0.922   0.170  -0.109  -1.380  -0.244  -0.209  -1.160  -0.012
   -3.252   0.820   2.352  -1.540  -1.293  -2.063  -1.503  -0.837   1.675  -0.697

    1.500   1.216
   -1.265  -1.298  -1.877   0.326   2.265   0.149  -0.068   1.451  -1.530   1.074
   -1.133  -0.789   0.643   1.213  -0.671  -0.462   0.137   0.976  -0.108   2.227
   -1.135  -1.568   0.528   0.237   1.007   2.841   0.590   2.681   1.614   3.187
   -0.246   3.675  -3.030   0.222  -0.792   1.301  -1.137  -1.741  -0.559   0.947
    0.512  -0.617   1.962   0.884   1.006   1.471  -0.155   2.226  -0.033  -0.748
    0.921  -0.612  -1.520   0.324  -2.859  -1.389   0.664   2.965   0.089   2.047
   -0.362   2.612   0.038   1.043   1.661  -1.338  -0.517   1.222   0.014  -1.064
   -4.041   0.678   0.319   0.091   1.728  -0.582  -0.136   0.957   2.690   0.872
    1.317   2.603   0.815  -0.498  -0.175  -1.709  -1.209   0.326  -0.513   0.097
   -1.261   0.460   2.256  -1.609  -0.996  -1.709  -1.533  -0.813   0.973  -0.524

    1.550   0.018
   -1.249  -1.040  -1.170  -0.495   2.522  -0.777  -0.878   1.464  -0.557   0.763
   -0.954  -2.033  -0.049   1.340   0.108  -0.030  -0.110  -0.602  -0.527   2.002
   -1.475  -1.724   0.567  -0.143   1.315   3.240   0.650   2.397   0.105   2.339
   -0.613   2.902  -2.733   0.702  -0.891   0.643  -1.511  -1.446   0.252  -0.207
    0.243  -0.519   2.775   0.449   0.796   1.126  -0.485   2.112   0.310   0.372
    1.244  -0.992  -0.793   0.366  -2.874  -0.973  -0.040   1.946   0.289   2.217
   -1.160   2.213   0.255   0.805   1.516  -1.573   0.002   0.072  -0.263  -2.064
   -4.502   0.420   0.260  -0.201   1.101  -0.112  -0.196   1.095   2.797   0.811
    0.986   3.223   0.362  -0.826  -0.950  -0.912  -0.548   1.310  -0.817  -0.003
   -0.882   1.236   1.553  -1.701  -1.747  -1.159  -1.656   0.014   0.274  -0.348

    1.600   0.297
   -1.226  -0.673  -1.332  -0.558   2.053  -0.919  -1.141   1.529  -1.050   0.514
   -1.270  -1.106  -1.019   1.536   0.206   0.320  -0.062  -0.449  -0.507   0.702
   -1.112  -1.551   0.118   0.530   1.262   2.188   0.877   1.913  -1.386   2.541
    0.018   2.790  -2.864   0.311  -1.305  -0.059  -1.689  -1.939  -0.105  -0.215
    0.221  -0.308   2.665   0.459   0.987   0.995   0.034   1.827  -0.225   0.266
    1.530  -0.742  -0.652  -0.553  -2.213  -1.159  -1.183   1.299  -0.365   2.191
   -1.379   1.227   0.280   0.512   0.692  -1.021   0.543  -0.190  -0.293  -2.351
   -3.822  -1.081   0.413  -0.649   1.177  -0.638   0.487   0.899   2.708   0.752
    0.407   3.624   0.321  -1.640  -0.428  -0.604  -1.606   0.864  -0.826  -0.322
   -1.048   1.574   2.376  -1.936  -2.065  -0.895  -0.397   0.454  -0.432   0.364

    1.650   0.498
   -0.233   0.295  -1.250  -0.269   0.205  -1.016  -0.576   1.609  -0.365   0.383
   -0.904  -1.309  -0.297   1.050   0.512  -0.132  -0.992  -0.954   0.078   0.860
   -1.168  -1.547  -0.323   0.739   1.187   1.545   0.931   2.117  -1.214   2.232
   -0.077   2.747  -1.920  -0.173  -0.547   0.009  -1.282  -2.605  -0.769   0.723
    0.772  -0.163   1.646   0.481   1.227   1.083   0.493   1.037  -0.650  -0.027
    2.126  -0.905  -0.332  -0.001  -1.678   0.278  -0.784   2.136  -0.456   1.336
   -0.877   1.739   0.703   0.159   1.410  -1.142  -0.110  -0.357   0.226  -1.809
   -2.737  -0.994  -0.697   0.273   1.325  -0.884   0.057   0.484   2.809   0.613
   -0.671   3.468  -1.155  -1.414  -0.057  -1.151  -2.369   1.326  -1.423  -1.070
   -0.594   0.467   2.322  -2.047  -1.588  -0.937  -0.449  -0.268  -1.305  -0.265

    1.700  -0.547
   -0.815  -0.315  -0.954   1.227   0.047  -1.006  -0.582   2.662  -1.121   0.190
   -0.734  -1.082   0.555  -0.114   1.672  -1.522  -1.522  -2.241   0.735   1.277
   -1.180  -1.012  -0.331   0.699   0.852   1.288   0.150   2.339  -0.524   1.658
   -0.220   3.523  -2.310  -0.283  -0.184   1.065  -1.746  -2.026  -1.483   1.249
    0.605  -0.082   0.634  -0.346   1.813   1.081  -1.408   1.324  -0.091   0.368
    1.418  -1.145   0.325   0.216  -2.438   0.893  -0.639   1.971  -1.066   1.552
   -2.136   2.102   0.458   0.659   1.983  -1.248  -0.873  -0.064   0.833  -1.369
   -3.041   0.235  -0.945   0.555   1.099  -0.234   0.900  -0.314   3.152   0.694
   -0.487   2.123  -1.384  -0.659  -0.018  -0.848  -2.155   1.663  -2.527   0.044
   -1.387   0.103   1.613  -1.743  -0.827  -1.225   0.031  -0.363  -0.342  -0.591

    1.750   0.155
   -0.152  -0.049  -0.394   1.747   1.143  -0.867   0.269   2.736  -1.190   0.078