
This full-field turbulence file was generated by TurbSim (v1.40, 12-Sep-2008) on 21-May-2021 at 12:51:23.

 | u-comp |  Y  x  Z  | Grid Resolution (Y x Z) | Time-step | Hub Elev | Mean U |
            10    10     15.556     15.556          0.050      80.00      3.00

 Z Coordinates (m):
  -70.000 -54.444 -38.889 -23.333  -7.778   7.778  23.333  38.889  54.444  70.000

 Y Coordinates (m):
  -70.000 -54.444 -38.889 -23.333  -7.778   7.778  23.333  38.889  54.444  70.000

    0.000   3.650
    3.052   2.554   2.554   4.285   4.009   2.469   1.770   0.590   1.308   3.702
    2.586   2.997   2.779   4.313   3.944   1.596   2.144   2.167   3.548   3.354
    5.164   3.958   3.861   2.713   3.774   2.977   4.339   2.694   4.839   3.684
    4.273   4.129   3.749   3.824   2.953   2.598   2.882   3.740   4.627   3.951
    4.745   3.065   1.717   2.924   2.105   1.673   3.102   4.522   3.488   3.332
    4.325   3.240   1.518   0.463   1.602   2.725   2.594   4.441   4.163   0.860
    3.423   1.780   4.194   2.695   1.931   1.986   2.865   4.556   2.538   2.253
    3.293   2.868   3.974   2.217   2.374   2.085   2.837   2.712   2.211   5.120
    1.463   3.309   3.234   1.424   0.994   2.727   1.787   1.957   3.421   3.318
   -0.108   0.826   1.194  -0.591   0.989  -2.065   1.095   1.734   3.079   3.968

    0.050   3.750
    3.076   2.266   2.663   4.498   3.834   2.739   1.408   0.834   1.522   3.511
    2.434   3.205   2.859   4.094   3.966   1.757   2.038   2.394   3.613   3.510
    5.283   4.093   3.904   2.989   3.936   2.838   4.008   2.414   4.939   4.047
    4.169   4.161   3.562   3.881   3.077   2.554   3.387   3.779   4.353   3.880
    4.725   3.174   1.875   3.067   2.128   2.021   3.290   4.561   3.355   3.018
    4.255   3.531   1.351   0.663   1.665   2.778   2.826   4.453   4.247   0.746
    3.409   1.780   4.411   2.796   2.095   2.097   2.816   4.565   2.395   2.876
    3.656   3.070   4.132   2.111   2.290   2.290   2.859   2.739   1.743   5.087
    1.288   3.332   3.028   1.482   1.063   2.705   1.540   2.063   2.961   3.195
    0.085   0.816   1.041  -0.587   0.560  -2.176   1.009   1.732   3.179   4.014

    0.100   3.596
    3.310   2.264   2.826   4.375   3.732   2.717   1.549   0.737   1.634   3.634
    2.731   3.212   2.796   4.227   3.659   1.693   1.921   1.846   3.825   3.515
    5.579   3.976   3.731   3.258   3.981   2.966   3.759   2.527   4.891   3.915
    4.410   4.643   3.870   3.715   2.966   2.746   3.562   3.853   4.348   4.172
    4.511   2.913   1.662   2.832   2.431   1.884   3.171   4.936   3.520   2.920
    4.396   3.392   1.352   0.789   1.470   2.776   2.777   4.544   4.195   0.758
    3.165   1.755   4.281   2.669   2.161   2.116   2.674   4.753   2.461   2.974
    3.470   3.256   4.157   1.892   2.190   2.272   2.616   2.396   1.385   4.887
    1.499   3.370   3.060   1.749   0.950   2.462   1.692   1.703   2.963   3.024
   -0.125   0.867   1.151  -0.566   0.668  -2.140   0.812   1.492   3.067   3.843

    0.150   3.689
    3.226   2.338   2.711   4.592   3.688   2.788   1.446   0.651   1.497   3.860
    2.408   3.043   2.685   3.914   4.025   1.603   2.008   1.541   3.917   3.425
    5.637   3.651   3.956   3.522   4.261   3.036   3.737   2.492   4.687   4.039
    4.596   4.732   3.914   4.006   2.953   2.774   3.431   3.620   4.199   4.166
    4.330   2.726   1.605   3.187   2.400   2.247   3.334   5.003   3.620   2.872
    4.513   3.569   1.418   0.944   1.541   2.718   2.850   4.685   4.176   0.986
    3.492   1.746   4.006   2.570   2.243   1.803   2.874   4.426   2.067   3.072
    3.486   3.401   4.273   2.053   2.238   2.455   2.667   2.159   1.646   4.879
    1.332   3.264   3.004   1.608   0.713   2.365   1.546   1.784   3.355   3.114
    0.083   0.718   1.264  -0.208   0.826  -1.958   0.972   1.570   2.704   3.839

    0.200   3.624
    3.153   2.217   2.658   4.678   3.787   2.943   1.560   0.754   1.620   3.960
    2.318   3.193   2.496   3.784   4.114   1.890   1.957   1.699   3.560   3.442
    5.519   3.946   3.914   3.812   4.322   3.132   3.912   2.468   4.479   4.291
    4.363   5.037   3.781   4.136   2.887   2.431   3.272   3.313   4.107   3.846
    4.269   3.092   1.470   3.349   2.168   2.255   3.251   4.858   3.733   2.965
    4.346   3.768   1.482   1.282   1.818   2.408   2.686   4.350   4.313   0.852
    3.320   2.031   4.162   2.357   2.358   1.466   3.007   4.632   2.066   2.915
    3.675   3.274   4.522   1.931   2.477   2.376   2.703   2.040   1.987   4.604
    1.317   2.935   3.336   1.360   0.795   2.384   1.465   1.802   3.631   3.208
   -0.119   0.988   1.075  -0.246   0.880  -2.187   0.898   1.718   2.714   4.217

    0.250   3.286
    2.919   1.760   2.632   4.991   3.924   3.119   1.305   0.947   1.371   3.694
    2.186   3.431   2.476   3.647   3.636   1.889   2.053   1.579   3.373   3.410
    5.723   3.698   3.714   3.847   4.398   3.287   3.872   2.473   4.566   4.582
    4.402   4.999   3.755   3.938   2.441   2.446   3.438   3.175   4.057   3.571
    4.134   2.865   1.487   3.385   1.734   2.264   3.038   4.441   3.586   3.044
    4.391   3.524   1.426   1.663   1.950   2.526   3.017   4.406   4.247   0.707
    3.533   2.011   4.108   2.630   2.329   1.551   3.062   4.732   2.333   2.971
    3.560   3.209   4.489   2.053   2.456   2.261   2.411   2.099   1.924   4.502
    1.478   2.914   3.502   1.599   1.057   2.575   1.452   1.716   3.895   3.155
   -0.236   0.840   1.116  -0.496   0.984  -2.017   1.019   1.918   2.953   4.367

    0.300   3.334
    2.824   1.937   2.860   5.152   4.069   3.159   1.379   0.876   1.602   3.613
    2.049   3.025   2.637   3.587   3.348   1.728   2.107   1.477   3.020   3.485
    5.762   3.461   3.902   3.615   4.539   2.938   3.723   2.342   4.872   4.098
    4.656   4.837   3.564   3.823   2.676   2.679   3.224   3.028   3.911   3.987
    4.173   2.549   1.260   3.400   1.749   2.093   2.791   4.455   3.479   2.556
    4.203   3.495   1.610   1.500   2.024   2.468   3.378   4.234   3.718   1.024
    3.747   1.836   3.816   2.408   2.167   1.916   3.006   4.971   2.153   2.908
    4.046   2.986   4.257   2.251   2.412   2.347   2.502   2.230   1.798   4.239
    1.423   2.967   3.354   1.822   0.962   2.253   1.427   1.526   3.989   3.338
   -0.344   0.840   1.264  -0.640   1.022  -1.912   1.134   1.788   2.989   4.669

    0.350   3.233
    2.581   1.945   3.026   5.174   3.781   3.190   1.435   0.871   2.103   3.959
    2.005   2.761   2.723   3.515   3.719   1.762   2.183   1.358   3.436   3.396
    5.560   3.462   4.110   3.524   4.510   3.100   3.602   2.264   4.832   4.052
    4.537   4.697   3.715   3.802   2.848   2.664   3.358   2.991   3.816   4.058
    4.069   2.648   1.474   3.253   1.740   2.082   3.073   4.698   3.518   2.473
    4.063   3.446   1.844   1.387   1.626   2.763   3.150   4.285   3.813   1.149
    3.849   1.823   3.688   2.352   2.419   2.218   2.757   5.142   2.242   2.870
    4.248   2.687   4.562   2.310   2.620   2.636   2.684   2.336   1.938   4.609
    1.157   2.872   3.332   1.895   1.114   1.977   1.224   1.344   4.057   3.214
   -0.203   0.754   1.160  -0.446   1.108  -1.966   1.343   2.033   3.161   4.316

    0.400   3.342
    3.044   2.173   3.068   5.051   3.754   3.336   1.264   0.675   2.014   3.976
    2.237   2.810   2.994   3.616   3.862   1.668   2.026   1.649   3.594   2.898
    5.933   3.564   4.155   3.686   4.319   3.206   3.455   1.990   4.836   3.965
    4.338   4.729   4.013   3.806   2.924   2.789   3.504   3.119   3.478   4.386
    4.155   2.702   1.477   3.306   1.871   2.059   2.854   4.676   3.454   2.428
    3.962   3.478   1.858   1.398   1.926   2.710   3.093   4.379   3.781   1.350
    4.235   1.969   3.816   2.551   2.232   2.339   2.714   5.303   2.463   2.611
    4.016   3.019   4.441   2.335   2.492   2.690   2.498   2.304   1.817   4.534
    1.045   3.212   3.653   1.668   1.181   1.976   1.277   1.491   3.976   2.933
   -0.421   0.790   1.091  -0.426   1.326  -1.754   1.246   2.098   3.231   4.195

    0.450   3.577
    3.110   2.058   3.177   4.740   3.712   2.977   1.425   0.747   2.216   3.811
    2.463   2.687   2.993   3.483   3.957   1.772   2.126   1.785   3.383   2.942
    5.997   3.580   3.881   3.749   4.221   3.403   3.356   2.135   4.898   3.973
    4.301   4.830   3.958   3.673   3.010   2.737   3.194   3.460   3.558   4.149
    4.037   2.372   1.760   3.096   1.834   2.255   2.791   4.642   3.587   2.585
    3.910   3.313   1.922   0.986   2.049   2.599   3.416   4.038   3.865   1.318
    4.406   2.047   3.798   2.809   2.345   1.929   2.552   5.449   2.429   2.758
    3.772   2.919   4.673   2.428   2.742   2.931   2.873   2.370   2.080   4.563
    0.936   3.335   3.530   1.395   1.347   2.497   1.293   1.672   3.855   3.085
   -0.376   0.574   1.203  -0.412   1.349  -2.021   1.511   2.051   3.043   4.080

    0.500   3.427
    3.212   1.865   3.187   4.626   3.661   2.618   1.733   0.546   2.295   3.932
    2.856   2.659   2.874   3.632   3.655   1.650   2.146   1.923   3.489   2.738
    5.677   3.840   3.675   3.892   4.063   3.635   3.436   2.267   4.713   4.023
    4.361   4.644   4.018   3.623   3.093   2.905   3.017   3.177   3.609   4.140
    4.249   2.344   1.791   2.849   1.774   2.062   2.421   4.642   3.648   2.659
    3.864   3.163   2.005   1.033   2.218   2.424   3.163   4.008   4.108   1.306
    4.418   1.837   4.026   2.388   2.551   1.895   2.397   5.127   2.797   2.604
    3.542   2.544   4.822   2.335   2.719   3.401   2.596   2.624   2.083   4.665
    1.038   3.373   3.406   1.131   1.166   2.450   1.411   1.769   3.944   2.784
   -0.226   0.784   1.259  -0.372   0.907  -2.179   1.392   2.050   2.986   4.029

    0.550   3.580
    3.319   1.789   3.172   4.465   3.675   2.547   1.978   0.548   2.399   3.554
    3.290   2.528   2.963   3.499   3.434   1.845   2.171   2.128   3.337   2.668
    5.440   3.901   3.798   3.815   4.026   3.721   3.534   2.186   4.724   4.129
    4.405   4.592   4.207   3.668   2.824   2.772   2.903   3.526   3.465   4.000
    4.347   2.438   1.506   3.240   1.703   1.754   2.077   4.262   3.691   2.552
    4.120   3.405   1.873   1.046   2.257   2.901   3.296   3.784   4.392   1.421
    4.514   1.577   4.266   2.403   2.435   1.994   2.720   5.354   3.111   2.411
    3.319   2.596   4.747   2.471   2.452   3.389   2.573   2.650   2.228   4.611
    0.862   3.244   3.714   1.089   1.024   2.335   1.542   2.091   3.746   2.554
   -0.342   1.133   1.377  -0.261   1.042  -1.839   1.245   2.095   3.386   4.104

    0.600   3.620
    3.068   1.577   2.992   4.573   3.521   2.508   1.741   0.628   2.561   3.806
    3.190   2.752   2.662   3.255   3.293   1.835   2.193   1.872   3.135   2.708
    5.413   3.828   3.589   3.837   4.137   3.886   3.568   2.024   4.917   3.755
    4.228   4.604   4.025   3.541   2.602   2.791   3.062   3.447   3.542   4.356
    4.372   2.484   1.524   3.391   1.654   1.991   2.193   4.390   3.638   2.528
    4.061   3.419   1.673   1.243   2.416   2.976   3.223   3.498   4.220   1.380
    4.421   1.954   4.161   2.611   2.492   2.050   3.010   5.363   3.132   2.362
    3.297   2.240   4.628   2.787   2.444   3.166   2.550   2.360   2.035   4.645
    0.493   3.052   3.820   1.120   0.944   2.289   1.624   1.796   3.817   2.490
   -0.521   1.123   1.550  -0.218   1.136  -1.783   1.372   2.151   3.206   3.986

    0.650   3.543
    2.922   1.650   2.817   4.434   3.465   2.241   1.712   0.689   2.092   3.780
    3.343   3.011   2.816   3.195   3.113   1.903   2.104   2.309   2.894   2.789
    5.179   3.701   3.505   3.987   3.951   3.962   3.610   1.929   5.313   3.589
    4.463   4.422   3.888   3.328   2.711   3.122   3.193   3.212   3.600   4.308
    4.640   2.425   1.226   3.230   1.563   2.026   2.141   4.491   3.401   2.440
    4.056   3.388   1.898   1.005   2.131   3.185   3.352   3.753   3.673   1.626
    4.397   1.760   4.327   2.690   2.123   2.210   2.574   5.384   3.183   2.209
    3.008   2.068   4.400   2.937   2.082   3.084   2.577   2.288   1.845   4.594
    0.531   3.175   3.724   1.496   1.003   2.516   1.428   1.704   3.961   2.567
   -0.199   1.173   1.692  -0.115   1.274  -1.803   1.314   2.199   3.232   3.845

    0.700   3.799
    2.836   1.733   2.885   4.764   3.847   2.687   2.200   0.678   1.859   3.988
    3.213   2.748   2.631   3.040   3.032   1.803   1.788   2.851   2.772   2.919
    5.192   3.650   3.833   3.875   4.177   3.848   3.744   2.101   4.869   3.675
    4.654   4.325   3.931   3.321   2.992   2.819   3.299   3.447   3.818   4.453
    5.004   2.553   1.263   2.875   1.631   2.178   2.309   4.553   3.621   2.524
    3.843   3.476   1.957   0.539   2.252   3.094   3.213   3.757   3.382   1.446
    4.506   1.967   4.245   2.746   2.205   2.356   2.531   5.523   3.703   2.346
    3.267   2.110   4.203   2.455   1.882   3.067   2.531   2.462   2.132   4.405
    0.231   3.267   3.711   1.554   0.587   2.351   1.062   1.913   4.024   2.487
   -0.413   1.238   1.447   0.129   1.223  -1.837   1.109   1.934   3.154   3.564

    0.750   3.638
    3.081   1.577   3.063   4.995   3.899   2.407   2.315   0.408   1.734   4.245
    3.083   2.691   2.514   3.192   3.084   1.926   2.296   2.878   2.850   2.581
    5.180   3.778   3.695   4.197   4.201   3.740   3.491   2.227   5.098   3.434
    4.880   4.515   3.845   3.417   2.977   2.470   3.160   3.554   3.571   4.556
    5.244   2.363   1.551   2.525   1.484   2.084   2.613   5.012   3.424   2.692
    3.629   3.379   1.990   0.400   2.322   2.878   3.053   3.650   3.338   1.744
    4.504   1.861   3.993   2.532   2.282   2.532   2.376   5.525   3.418   2.305
    3.172   2.045   4.401   2.267   1.661   3.292   2.478   2.607   2.157   4.400
    0.094   3.048   3.702   1.655   0.556   2.023   1.578   1.973   3.743   1.874
   -0.415   0.867   1.325   0.096   1.084  -2.087   1.091   2.073   3.540   3.447

    0.800   3.205
    3.070   1.887   3.049   5.144   3.801   2.195   2.384   0.395   1.833   4.171
    3.143   2.813   2.234   3.197   2.992   1.671   2.099   2.893   2.964   2.928
    5.217   3.653   3.872   4.301   4.234   3.709   3.605   2.253   5.283   3.563
    5.013   4.495   3.955   3.464   3.113   2.452   3.074   3.826   3.623   4.542
    5.236   2.256   1.743   2.662   1.647   2.414   2.682   5.194   3.431   2.834
    3.760   3.455   2.000   0.458   2.483   2.772   2.846   3.790   3.234   2.063
    4.171   2.149   4.065   2.789   2.367   2.298   2.517   5.214   3.584   2.505
    3.276   2.220   4.140   2.254   1.672   2.932   2.660   2.528   2.203   3.930
    0.353   2.906   3.717   1.435   0.866   2.012   1.857   1.986   3.767   2.055
   -0.070   0.918   1.371  -0.100   1.155  -1.893   0.961   2.003   3.659   3.715

    0.850   3.207
    3.082   2.455   2.981   4.865   3.609   2.169   2.323   0.351   1.931   4.018
    3.266   3.017   2.124   3.257   3.080   1.652   2.124   3.013   3.265   3.111
    5.191   3.547   3.917   4.141   4.289   3.697   3.521   2.100   5.493   3.848
    5.199   4.546   4.172   3.462   3.134   2.603   3.079   3.609   3.577   4.090
    5.188   1.844   1.916   2.684   1.692   2.338   2.437   5.123   3.415   2.886
    3.855   3.589   1.958   0.590   2.380   2.920   2.718   3.921   3.055   1.791
    4.374   2.084   4.091   2.740   2.427   2.606   2.464   5.250   3.705   2.735
    3.171   2.056   4.132   2.173   1.705   2.931   2.579   2.494   2.173   3.790
    0.609   3.012   3.687   1.556   1.039   1.944   1.817   2.106   3.620   2.018
    0.330   1.021   1.542  -0.257   0.930  -1.863   0.997   1.944   3.743   3.881

    0.900   3.374
    3.257   2.275   2.969   4.970   3.762   2.041   2.358   0.745   2.036   4.087
    3.016   2.924   2.657   2.936   3.172   1.564   2.338   3.142   3.223   3.369
    5.258   3.767   4.042   3.704   4.256   3.854   3.385   2.089   5.396   3.838
    5.040   4.477   4.054   3.652   2.718   2.556   2.493   3.857   3.499   4.027
    5.095   2.039   1.557   2.617   1.702   1.992   2.393   5.240   3.666   2.728
    3.903   3.323   2.010   0.764   2.210   2.877   2.726   4.015   3.355   1.795
    4.707   2.370   4.236   2.779   2.450   2.239   2.506   5.030   3.579   2.562
    3.069   1.942   4.380   2.434   1.630   2.918   2.341   2.283   1.973   3.868
    0.888   3.017   3.662   1.575   1.205   1.567   1.792   1.747   3.823   1.867
    0.270   1.098   1.458  -0.185   0.910  -1.371   1.168   1.622   3.162   3.930

    0.950   3.383
    3.329   2.008   2.947   4.922   3.995   1.869   2.237   0.812   2.179   4.015
    3.099   2.918   2.533   2.844   3.068   1.142   2.255   3.024   2.983   3.064
    5.242   3.401   4.242   3.585   4.445   3.885   3.734   2.221   5.140   4.196
    4.792   4.440   3.812   3.464   2.775   2.690   2.391   4.009   3.645   4.076
    5.436   2.257   1.728   2.954   1.478   1.938   2.325   5.378   3.870   2.896
    3.965   3.155   1.933   0.625   1.991   2.743   3.005   4.055   3.649   1.707
    4.546   2.591   4.072   2.660   2.583   2.293   2.512   4.834   3.936   2.672
    3.141   1.869   4.406   2.473   1.759   3.200   2.246   2.426   1.871   3.971
    0.898   2.993   3.482   1.629   1.176   1.558   1.526   2.152   3.612   2.056
    0.277   1.188   1.391  -0.038   0.818  -1.885   0.832   1.289   3.312   3.939

    1.000   3.366
    3.462   1.963   2.798   4.874   3.938   1.734   2.002   0.828   1.724   3.827
    2.998   2.735   2.310   3.040   2.831   1.133   2.288   3.152   2.781   3.023
    5.148   3.338   4.149   3.592   4.479   3.683   3.798   2.193   4.706   4.211
    4.902   4.077   3.602   3.551   3.076   2.580   2.506   4.051   4.027   4.281
    5.167   2.326   1.635   2.575   1.320   2.152   2.401   5.531   3.842   2.829
    4.122   3.243   1.876   0.583   1.842   2.525   3.125   4.122   3.521   1.352
    4.444   2.337   4.003   2.711   2.576   2.157   2.583   4.912   3.926   2.970
    3.226   1.965   4.326   2.487   1.829   3.413   2.024   2.681   2.113   4.180
    0.985   2.935   3.311   1.672   1.432   1.691   1.337   2.071   3.473   2.147
    0.274   1.129   1.352  -0.208   1.149  -1.794   0.935   1.511   3.748   3.946

    1.050   3.391
    3.642   2.152   2.589   4.816   4.369   2.001   2.014   0.619   1.567   3.725
    2.716   2.782   2.605   3.262   2.829   1.329   2.386   2.910   2.880   2.920
    5.223   3.142   4.074   3.536   4.443   3.403   3.576   2.278   4.819   4.236
    4.793   4.245   3.506   3.615   2.946   2.941   2.380   3.722   4.198   4.377
    4.985   2.287   1.822   2.607   0.992   2.318   2.170   5.395   3.947   2.735
    4.351   3.416   2.034   1.110   2.142   2.341   3.031   4.107   3.441   1.222
    4.330   2.259   3.764   2.987   2.555   2.383   2.828   4.549   3.704   2.960
    3.232   1.755   4.608   2.922   1.787   3.195   2.254   2.237   2.352   4.240
    0.568   2.922   3.141   1.634   1.723   1.835   1.213   2.053   3.515   2.233
    0.075   1.092   1.319  -0.174   1.703  -1.809   0.854   1.635   3.299   3.868

    1.100   3.226
    3.290   1.997   2.622   4.884   4.606   2.032   1.781   0.693   1.487   3.647
    2.835   2.889   2.629   3.233   3.116   1.316   2.381   3.204   2.903   2.891
    5.163   3.195   3.957   3.584   4.166   3.570   3.180   2.325   4.879   4.165
    4.685   4.682   3.595   3.722   2.997   3.073   2.391   4.056   4.400   4.294
    4.986   2.394   1.783   2.210   1.270   2.007   2.327   5.393   3.678   2.551
    4.320   3.447   2.085   1.189   2.128   2.481   2.989   4.373   3.334   1.412
    4.197   2.263   3.632   2.843   2.753   2.212   2.617   4.283   3.750   3.144
    3.278   2.013   4.521   2.957   2.023   3.209   1.919   2.083   2.254   4.089
    0.584   3.182   3.445   1.806   1.800   2.084   1.334   2.057   3.420   2.171
    0.114   1.065   1.289  -0.120   1.633  -1.632   0.763   1.701   3.496   3.968

    1.150   3.303
    3.610   2.192   2.491   4.824   4.622   2.377   1.604   0.528   1.522   3.567
    2.580   2.900   2.556   3.500   3.235   1.430   2.730   2.971   3.100   2.859
    5.379   3.028   3.829   3.456   4.599   3.587   3.364   2.757   4.951   4.359
    4.706   4.545   3.436   3.586   2.886   2.915   2.620   4.052   4.586   4.478
    5.176   2.730   1.977   2.380   1.446   1.995   2.800   5.219   3.799   2.688
    4.435   3.090   2.174   1.248   2.003   2.260   3.059   4.519   3.122   1.673
    4.275   2.399   3.654   2.759   2.582   2.134   2.422   4.319   3.685   3.180
    3.205   2.332   4.410   2.895   2.051   3.146   2.073   2.126   2.442   4.571
    0.935   2.981   3.276   1.533   1.733   1.997   1.517   1.981   3.616   2.308
   -0.117   1.492   1.152  -0.119   1.681  -1.485   0.945   1.577   3.426   3.773

    1.200   2.816
    3.673   2.188   2.464   4.786   4.758   2.249   1.619   0.763   1.286   3.328
    2.513   2.741   2.616   3.408   3.173   1.529   2.588   2.961   3.127   3.004
    5.278   2.980   4.142   3.455   4.715   3.667   3.204   2.676   4.964   4.724
    4.878   4.422   3.281   3.261   2.783   2.956   2.636   3.971   4.469   4.639
    5.214   2.400   1.851   2.502   1.817   2.151   2.748   5.270   3.777   2.661
    4.641   2.900   2.202   0.900   1.833   2.264   3.021   4.370   2.887   1.471
    4.180   2.346   3.932   2.772   2.672   2.026   2.863   4.499   3.659   2.907
    2.956   2.299   4.645   2.766   1.807   3.099   2.049   1.801   2.406   4.402
    0.973   2.784   3.476   1.713   1.525   1.825   1.720   2.149   3.192   2.088
   -0.100   1.058   1.207  -0.232   1.418  -1.199   0.565   1.468   3.379   3.728

    1.250   2.582
    4.013   2.294   2.626   5.261   4.984   1.942   1.693   0.742   1.163   3.569
    2.242   3.035   2.642   3.277   2.935   1.658   2.303   2.533   3.387   3.112
    5.207   3.070   3.910   3.472   4.333   3.668   3.128   2.695   4.824   4.567
    4.932   4.293   3.235   3.132   2.867   2.663   2.586   4.058   4.649   4.531
    5.270   2.248   2.032   2.648   1.567   2.413   2.823   4.803   3.761   2.762
    4.618   2.964   2.050   0.911   1.746   2.813   2.836   4.146   2.828   1.314
    4.235   2.266   3.912   3.042   2.719   1.922   2.966   4.025   3.560   2.738
    2.842   2.439   4.694   2.736   1.276   2.927   2.142   1.720   2.172   4.407
    1.104   2.882   3.457   1.656   1.630   1.891   1.804   2.107   3.525   1.822
   -0.006   1.017   1.283  -0.190   0.981  -1.238   0.478   1.518   3.702   3.708

    1.300   2.423
    3.842   2.245   2.849   5.354   4.862   1.750   1.795   0.866   1.124   3.342
    2.392   3.152   3.019   3.404   3.272   1.899   2.273   2.303   3.252   2.966
    4.741   3.290   3.932   3.596   4.511   3.470   3.296   2.311   4.924   4.526
    5.021   4.088   3.130   3.106   2.584   2.642   2.716   4.065   4.582   4.768
    5.567   2.217   2.145   2.628   1.606   2.562   2.812   4.644   3.578   2.655
    4.539   3.060   1.924   1.020   2.162   2.509   2.678   4.051   2.856   0.787
    4.244   2.231   3.969   3.162   2.840   2.019   3.195   4.032   3.513   3.077
    2.569   2.535   4.667   2.855   1.484   3.126   2.015   1.188   2.315   4.518
    1.164   3.015   3.065   1.478   1.727   2.167   1.762   1.879   3.351   1.958
   -0.166   1.304   1.500  -0.029   0.964  -1.276   0.718   1.562   3.639   3.825

    1.350   2.328
    4.116   2.348   2.714   5.264   4.423   1.969   1.727   0.988   1.243   3.496
    2.344   3.069   3.440   3.329   3.403   1.624   1.951   2.207   3.042   3.274
    4.842   3.487   3.539   3.365   4.476   3.152   3.122   2.144   4.684   4.449
    5.112   3.817   3.400   3.310   2.533   2.826   2.760   4.171   4.391   4.552
    5.684   2.286   2.277   2.574   1.816   2.457   2.728   4.602   3.347   2.499
    4.597   3.204   1.929   1.170   2.261   2.730   2.707   3.967   2.709   0.821
    4.152   2.207   3.742   3.299   2.728   2.030   3.032   3.924   3.213   2.750
    3.005   2.652   4.889   2.900   1.498   3.043   2.066   1.469   2.840   4.612
    1.117   2.829   2.728   1.141   1.676   2.023   1.696   2.009   3.500   1.852
   -0.378   1.330   1.558   0.061   1.107  -1.155   0.470   1.784   3.312   3.800

    1.400   2.464
    4.055   2.509   2.837   5.187   4.374   2.178   1.693   0.976   1.386   3.571
    2.308   3.005   3.215   3.187   3.296   1.800   2.241   2.152   2.759   3.325
    4.455   3.619   3.394   3.110   4.291   2.631   2.937   2.131   4.165   4.575
    5.382   4.424   3.600   3.405   2.600   2.936   2.732   4.138   4.480   4.789
    5.650   2.122   2.277   2.550   1.732   2.362   2.631   4.527   3.297   2.416
    4.664   3.188   1.846   1.126   2.344   3.063   2.698   3.939   2.582   0.836
    4.067   2.089   3.591   3.214   2.849   1.944   3.047   3.982   3.035   2.600
    3.308   2.752   4.905   2.888   1.547   2.917   2.321   1.587   2.738   4.323
    1.191   3.083   2.756   1.226   1.536   1.654   1.693   1.830   3.433   1.958
   -0.422   1.378   1.381   0.013   1.307  -1.399   0.462   1.773   3.499   3.670

    1.450   2.264
    3.854   2.779   2.858   5.369   4.127   2.361   1.706   1.146   1.610   3.604
    2.534   2.943   3.201   3.069   3.215   2.157   2.189   2.156   3.005   3.141
    4.262   3.766   3.454   3.041   4.233   2.726   3.011   2.539   4.425   4.519
    5.501   4.124   3.451   3.507   2.506   2.789   2.635   3.699   4.428   5.026
    5.787   1.974   2.194   2.882   1.550   2.217   2.639   4.642   3.399   2.436
    4.921   3.207   1.811   1.108   2.310   3.062   2.495   3.675   2.693   0.679
    4.097   2.060   3.553   3.309   2.613   2.179   2.837   3.932   3.141   2.477
    3.208   2.836   4.705   2.816   1.490   2.911   2.330   1.648   2.513   4.345
    1.353   2.884   2.786   1.193   1.659   1.570   1.823   2.051   3.318   1.935
   -0.273   1.622   1.000  -0.382   1.223  -1.294   0.286   2.019   3.670   3.918

    1.500   2.198
    3.506   2.848   2.830   5.358   4.215   2.450   2.048   0.646   2.001   3.564
    2.147   3.274   3.263   3.065   3.302   2.274   2.428   2.184   3.465   2.993
    4.245   3.768   3.308   3.047   3.838   2.652   3.227   2.166   4.350   4.356
    5.652   4.175   3.647   3.359   2.611   2.788   2.695   3.712   4.574   5.005
    5.519   1.990   2.368   2.720   1.500   2.203   2.805   4.715   3.615   2.356
    4.976   2.923   1.893   0.942   2.343   2.870   2.480   3.607   2.325   0.906
    4.333   1.978   3.449   3.149   2.165   2.458   2.706   3.851   3.168   2.049
    3.180   2.975   4.722   2.793   1.638   3.147   2.271   1.719   2.866   4.364
    1.442   2.909   2.772   1.093   1.569   1.570   1.914   2.246   3.176   2.044
   -0.327   1.544   1.205  -0.298   0.958  -1.109  -0.040   1.592   3.609   4.037

    1.550   2.280
    3.339   2.902   2.749   5.223   4.007   2.576   2.285   0.699   1.926   3.408
    2.331   3.599   3.167   3.282   3.161   2.380   2.186   2.015   3.239   3.068
    4.493   3.682   3.383   3.062   3.970   2.665   3.404   2.260   4.529   4.323
    5.563   4.306   3.791   3.583   2.723   2.864   2.752   3.737   4.992   5.063
    5.250   2.257   2.280   2.802   1.811   2.049   3.088   5.026   3.065   2.344
    4.929   2.980   2.033   1.075   2.307   2.731   2.534   3.589   2.322   1.153
    4.582   2.295   3.611   2.778   2.509   2.171   2.586   4.089   2.729   2.029
    3.234   2.775   4.462   2.769   1.811   3.094   2.046   1.813   2.851   4.239
    1.566   2.954   2.419   1.076   1.369   1.197   2.103   2.366   3.019   2.058
   -0.629   1.455   1.142  -0.289   1.037  -0.804  -0.079   1.409   3.393   4.287

    1.600   2.726
    3.192   3.203   2.799   5.219   3.793   2.494   1.857   0.774   1.580   3.422
    2.216   3.461   3.215   3.451   3.193   2.029   2.438   2.475   3.235   3.082
    4.522   3.457   3.565   3.089   4.013   2.534   3.208   1.964   4.640   4.771
    5.363   4.215   3.682   3.868   2.766   2.820   2.843   3.802   4.828   5.301
    5.353   1.803   2.259   2.682   1.942   2.108   3.492   5.072   3.092   2.265
    4.796   2.907   2.110   1.228   2.417   2.808   2.645   3.646   2.437   0.910
    4.554   2.075   3.522   2.969   2.435   2.510   2.664   3.944   2.731   1.963
    2.963   2.523   4.366   2.434   1.767   3.176   2.262   1.797   2.981   4.094
    1.511   2.962   2.238   1.103   1.264   0.918   1.903   2.518   2.907   2.217
   -0.628   1.368   1.013  -0.162   1.010  -0.471   0.430   1.541   3.304   3.994

    1.650   2.729
    3.591   3.350   2.670   5.318   4.109   2.355   2.021   0.765   1.423   3.678
    2.360   3.512   3.145   3.586   3.081   1.896   2.790   2.636   3.144   3.009
    4.441   3.622   3.395   3.093   4.095   2.626   3.270   1.769   4.520   4.933
    5.194   4.090   3.817   3.479   2.853   2.717   2.812   3.406   4.522   4.979
    5.569   1.708   2.220   2.757   1.913   2.218   3.412   5.213   3.040   2.273
    4.711   2.816   2.105   1.259   2.131   2.975   2.430   3.597   2.321   0.960
    4.422   2.052   3.611   2.917   2.513   2.687   2.971   4.099   2.689   2.113
    2.988   2.476   4.329   2.672   1.903   2.983   1.920   1.854   2.852   4.007
    1.343   2.984   2.485   0.818   1.365   0.790   1.856   2.551   3.171   2.057
   -0.402   1.817   1.025  -0.155   0.871  -0.532   0.557   1.435   3.263   3.638

    1.700   2.626
    3.674   2.854   2.618   5.050   4.038   2.245   1.925   1.075   1.417   3.774
    2.418   3.395   3.232   3.627   3.401   1.987   2.686   2.210   3.223   3.027
    4.371   3.515   3.656   2.825   4.076   2.503   3.444   1.385   4.864   4.533
    5.368   4.329   3.883   3.404   3.182   2.584   2.695   3.626   4.639   4.962
    5.573   1.678   2.154   2.895   2.155   2.324   3.400   5.046   3.346   2.310
    4.576   2.578   2.131   1.306   2.219   2.818   2.243   3.537   2.495   1.175
    4.610   1.888   3.887   2.939   2.811   2.572   2.783   4.307   2.845   2.217
    3.212   2.668   4.281   2.543   2.065   2.856   1.779   1.901   2.781   4.094
    0.878   3.001   2.715   1.003   1.286   0.713   1.676   2.665   3.178   2.155
   -0.245   1.459   1.307  -0.036   0.589  -0.657   0.781   1.310   3.376   3.721

    1.750   2.635
    3.330   2.539   2.802   5.010   4.262   2.095   2.221   1.377   1.439   4.009