
This full-field turbulence file was generated by TurbSim (v1.40, 12-Sep-2008) on 21-May-2021 at 12:51:36.

 | u-comp |  Y  x  Z  | Grid Resolution (Y x Z) | Time-step | Hub Elev | Mean U |
            10    10     15.556     15.556          0.050      80.00     23.00

 Z Coordinates (m):
  -70.000 -54.444 -38.889 -23.333  -7.778   7.778  23.333  38.889  54.444  70.000

 Y Coordinates (m):
  -70.000 -54.444 -38.889 -23.333  -7.778   7.778  23.333  38.889  54.444  70.000

    0.000  18.578
   26.227  27.440  25.599  24.868  20.458  16.690  19.281  18.172  24.261  24.120
   23.793  24.502  22.271  19.912  19.785  18.685  17.919  18.028  19.815  20.848
   26.186  23.742  22.477  18.848  20.268  20.740  17.196  17.554  17.613  17.956
   24.548  23.500  20.766  20.943  17.047  19.510  17.598  17.743  19.247  21.827
   19.030  21.909  17.548  17.978  17.784  17.015  18.206  21.369  17.110  22.175
   17.722  20.790  18.625  18.819  16.843  17.278  13.557  14.458  15.637  20.317
   16.276  18.459  17.913  15.690  21.070  14.451  16.652  15.357  19.061  18.807
   16.829  13.036  17.065  19.686  13.164  11.183  10.208  14.474  16.411  18.347
   16.084  14.039  14.527  17.480  11.429   8.022   8.074  14.485  13.644  14.618
   10.792   9.304  11.599  10.764  10.032   9.238   3.359   8.822   9.823  10.958

    0.050  17.698
   25.619  27.079  24.574  25.059  20.972  17.498  18.179  18.983  24.448  23.591
   24.028  23.864  22.323  19.835  19.378  19.037  18.071  19.080  20.306  21.545
   25.019  23.734  22.222  18.317  19.738  20.156  17.379  17.835  17.465  19.320
   24.507  23.900  21.069  21.216  18.259  19.228  18.224  18.391  19.759  21.973
   18.766  22.540  17.521  18.256  18.100  17.479  18.562  21.120  17.717  21.796
   18.222  20.977  19.267  18.352  16.866  15.947  13.808  15.647  15.022  21.042
   17.126  18.550  17.680  15.230  20.818  15.152  16.914  15.337  18.888  18.334
   16.056  13.880  16.416  19.625  14.126  11.585  10.760  14.691  17.031  18.849
   16.566  14.016  14.296  16.965  10.680   7.398   7.625  14.465  13.667  14.365
   11.143   9.955  11.111  10.592   9.593   7.886   3.089   8.263   9.560  11.572

    0.100  17.680
   25.650  26.701  25.016  24.539  21.306  17.624  17.946  19.683  24.377  23.519
   24.416  24.032  22.072  19.457  19.150  19.582  17.485  20.079  20.412  21.890
   25.745  23.193  21.538  19.399  20.897  20.535  17.576  18.679  16.785  20.290
   24.685  22.993  20.085  22.193  18.152  18.848  17.774  18.016  20.837  22.042
   19.343  23.216  18.111  19.283  18.034  17.312  18.965  21.161  17.966  21.224
   17.343  21.317  20.085  17.984  16.708  15.793  12.549  16.017  15.046  20.348
   17.101  17.726  17.077  16.578  20.762  13.565  15.767  15.128  17.573  18.218
   16.078  15.319  15.544  18.976  13.267  12.184  11.031  15.274  16.389  18.360
   16.318  13.881  14.828  16.746  12.171   6.947   7.585  14.832  13.155  14.966
   10.905  10.217  10.308   9.459   8.628   7.411   3.551   8.424  10.298  11.737

    0.150  16.347
   25.746  25.861  24.819  23.833  21.216  17.571  18.881  19.896  24.193  22.361
   23.522  23.950  21.863  20.343  19.508  17.991  18.474  20.688  19.721  21.566
   25.437  23.131  22.310  19.081  20.529  19.979  18.556  19.202  17.364  20.652
   24.104  22.140  19.983  22.310  19.110  19.205  16.687  18.609  20.586  21.470
   20.034  22.403  17.522  18.666  19.232  17.114  18.257  20.992  17.636  20.286
   16.727  21.156  20.615  18.619  16.853  16.064  13.264  16.143  15.622  21.300
   18.007  18.421  17.890  15.925  20.892  14.253  16.921  15.610  17.739  18.715
   16.120  13.899  15.345  18.768  13.050  11.424  10.586  14.797  15.846  18.301
   17.790  12.347  14.374  15.479  12.213   7.141   7.908  14.480  12.710  14.807
   11.127  10.878  10.101   9.044   7.725   7.912   3.722   8.659   9.999  11.316

    0.200  16.065
   26.415  25.602  25.028  24.642  20.246  16.486  18.937  18.814  23.463  22.289
   22.750  24.495  22.206  19.900  20.417  17.736  17.885  19.769  19.540  21.551
   25.985  24.143  22.947  19.767  20.419  19.048  19.033  18.505  17.777  20.054
   24.382  23.552  19.538  21.679  19.047  18.533  17.280  19.151  19.214  20.855
   20.527  21.417  17.687  18.644  18.750  15.954  17.986  21.637  16.997  19.572
   16.831  21.142  20.017  19.027  17.543  15.579  13.907  16.669  15.292  21.555
   18.301  17.288  18.325  15.810  20.369  13.726  16.368  16.218  17.131  18.868
   16.342  15.030  15.077  18.753  12.997  10.813  10.140  14.266  15.770  17.408
   17.403  12.614  14.695  16.157  12.515   7.165   8.826  13.359  13.275  15.581
   10.265  10.660  10.486   8.470   7.487   7.507   3.271   9.101   9.367  11.625

    0.250  17.024
   26.185  25.389  25.141  25.260  21.336  16.430  19.053  17.811  22.748  21.863
   22.108  24.735  20.598  18.545  20.995  18.454  17.408  19.161  20.181  21.336
   25.288  24.566  24.309  20.432  19.694  19.378  18.130  17.980  18.933  20.374
   24.231  23.612  19.700  22.065  18.046  18.183  16.489  19.262  19.160  21.356
   21.525  22.551  17.506  19.512  19.203  16.734  17.977  23.042  18.184  19.808
   17.510  20.291  19.162  19.256  16.835  15.356  14.433  16.946  15.169  21.124
   18.024  18.018  17.429  15.808  20.310  13.132  16.217  15.422  18.109  18.688
   16.879  15.029  15.208  19.393  11.597   9.503  10.730  15.452  15.816  17.902
   16.967  11.239  15.613  16.139  12.871   7.379   8.960  13.334  14.141  15.741
   10.093  11.197  11.086   8.428   7.251   7.930   4.226   8.904   9.108  12.809

    0.300  15.734
   24.812  25.635  25.414  24.780  21.303  18.254  19.023  17.779  22.417  22.262
   21.281  25.743  21.701  18.136  20.718  18.728  17.860  19.760  21.181  21.579
   25.442  24.355  23.964  21.051  19.984  19.434  18.677  17.090  18.454  21.022
   24.072  22.590  20.175  22.201  18.264  18.728  16.626  17.872  20.089  21.213
   21.083  23.043  18.355  19.662  19.213  17.873  18.180  22.356  19.078  19.725
   17.700  21.356  18.088  18.684  16.363  16.046  15.688  17.094  15.238  21.029
   17.481  17.984  16.764  15.850  19.085  14.480  16.607  15.413  18.809  18.867
   16.235  14.068  15.164  18.187  12.349   9.868  10.648  16.563  16.350  18.408
   17.045  11.241  15.359  16.669  13.090   6.829   9.350  13.510  13.581  16.625
   10.269  11.067  11.312   8.224   7.683   7.739   3.827   8.708   9.228  12.540

    0.350  17.184
   25.056  25.148  25.366  24.847  21.069  17.825  18.689  18.654  21.379  22.043
   21.092  26.768  21.373  19.738  19.659  18.689  18.999  19.715  20.672  20.722
   26.717  23.761  24.155  21.314  20.986  19.710  18.523  17.128  18.611  19.702
   24.379  22.766  20.855  22.297  17.376  18.415  16.448  18.142  19.704  21.369
   21.086  22.596  18.794  18.792  18.953  16.751  17.531  22.112  19.042  20.295
   17.822  22.154  16.723  18.353  15.457  17.564  16.602  17.913  15.341  21.220
   18.022  18.409  16.052  16.178  19.014  14.464  16.110  15.858  18.874  18.825
   16.579  13.858  14.526  17.968  13.369   9.785  11.371  17.024  16.938  17.656
   16.445  11.635  15.230  15.662  12.998   8.265   9.412  13.606  11.907  17.559
    9.639  11.197  11.014   8.159   7.980   7.722   4.947   8.687   9.097  12.733

    0.400  17.977
   25.254  25.138  24.206  24.450  21.752  16.986  18.518  18.570  21.732  22.309
   21.949  26.695  21.527  19.751  18.717  18.483  19.524  19.277  20.176  20.913
   26.774  24.002  23.820  20.789  20.782  19.980  18.254  16.745  18.862  19.263
   23.883  23.544  20.496  21.094  17.032  18.563  15.825  17.416  19.873  21.461
   20.704  22.618  19.667  18.176  18.082  17.198  17.986  22.161  19.104  19.364
   18.507  21.917  15.835  17.740  16.543  18.524  16.412  17.277  14.917  21.253
   17.690  18.248  15.698  15.414  19.338  14.639  15.570  15.948  18.782  18.382
   17.841  14.329  15.657  18.571  13.865   8.651  12.020  16.907  16.836  17.476
   17.440  11.701  14.797  15.178  12.667   7.616   9.768  14.000  11.661  18.022
   10.197   9.841  10.320   8.728   8.239   5.868   3.663   9.345   9.218  12.594

    0.450  17.681
   25.013  24.852  24.216  25.086  21.978  18.330  17.629  19.226  21.416  21.699
   21.029  26.712  22.063  18.223  18.657  19.196  18.937  19.296  20.165  20.933
   26.917  24.149  23.517  20.731  21.558  19.825  18.968  16.138  18.393  18.637
   23.586  23.378  19.812  21.093  16.529  18.414  17.728  17.824  18.800  22.407
   21.041  23.204  19.417  18.115  16.761  17.327  18.353  21.738  18.930  19.107
   19.395  21.380  16.609  16.517  16.598  17.584  16.586  16.496  14.977  20.130
   16.243  17.642  16.216  15.893  19.507  13.816  15.777  14.590  19.659  18.322
   17.731  14.748  16.075  19.397  14.661   9.106  12.111  16.793  17.854  18.277
   18.454  12.007  15.726  15.480  12.330   8.802   9.699  13.692  12.540  18.087
   10.096   9.857   9.403   8.549   8.030   6.130   3.577  10.229   9.718  12.636

    0.500  17.480
   24.876  25.146  24.378  25.114  22.285  17.950  18.755  19.759  21.263  21.339
   22.239  26.236  22.241  19.032  18.268  19.366  19.620  19.412  19.946  19.992
   26.099  23.983  22.862  21.165  21.750  20.033  18.730  16.037  17.203  18.458
   24.229  22.888  19.934  20.761  16.548  18.131  17.668  18.836  19.426  22.159
   21.475  22.745  18.407  17.183  16.642  17.130  19.809  19.900  19.125  20.463
   19.995  22.121  15.924  18.083  17.465  17.265  17.321  17.028  15.496  20.296
   15.723  17.880  15.166  15.494  18.970  14.576  15.318  15.186  20.544  17.438
   17.451  15.546  15.823  18.898  14.625   8.905  10.920  17.180  17.176  18.663
   19.274  12.778  16.015  16.120  11.811   9.240  10.180  13.284  12.519  17.647
    9.490  10.205  10.145   8.492   8.309   6.412   4.200  10.559  10.229  11.983

    0.550  18.077
   24.502  25.282  25.152  23.631  23.348  18.014  19.335  19.318  21.785  21.588
   21.506  25.572  22.859  19.469  19.048  19.747  19.505  19.437  19.497  20.803
   25.741  24.840  22.721  20.912  21.125  18.970  18.214  15.893  17.419  18.408
   24.646  22.948  20.420  18.954  16.870  18.117  17.960  18.799  19.929  22.269
   20.754  23.853  18.424  17.692  16.452  16.845  19.785  21.945  18.975  19.439
   18.996  22.382  16.375  18.333  17.987  17.292  16.721  16.931  15.516  20.199
   15.677  17.754  15.479  15.933  17.617  14.383  15.145  15.085  20.914  17.893
   17.580  15.681  16.484  19.463  15.495  10.281  11.687  16.129  17.822  17.834
   18.764  12.944  15.696  15.508  12.356   8.997   9.627  12.398  11.790  18.790
   10.292  10.164  10.181   9.051   7.393   6.791   4.566  11.095  10.596  12.207

    0.600  18.567
   24.293  24.827  24.881  24.271  23.254  19.170  19.126  18.070  20.930  22.161
   20.864  25.988  23.897  19.826  19.019  19.880  18.612  19.585  18.933  22.115
   25.624  23.880  23.276  20.194  21.298  19.017  18.862  14.961  18.048  18.494
   25.050  22.479  21.725  19.971  17.059  18.448  17.888  19.540  20.973  22.274
   20.787  22.932  18.530  18.274  15.477  16.550  19.829  22.593  19.028  18.748
   18.951  21.458  15.477  17.831  19.261  17.979  16.252  16.579  15.900  20.059
   16.141  17.561  15.674  15.815  18.209  13.785  15.398  15.131  20.233  17.375
   16.581  16.881  16.005  17.811  15.800  10.705  12.177  16.817  17.453  18.368
   20.042  14.073  16.360  16.474  12.409   9.516   9.418  12.762  11.882  19.030
    9.634   9.448   9.464   9.064   7.456   7.379   4.490  10.549   9.836  12.979

    0.650  18.546
   24.244  24.300  24.556  23.381  21.909  19.895  18.962  17.817  20.866  22.483
   20.508  25.226  23.490  19.643  18.733  19.404  19.165  19.726  19.030  22.272
   24.847  23.904  23.091  20.277  20.895  19.070  18.111  15.066  19.064  19.028
   25.393  21.869  21.613  19.856  17.055  18.836  17.307  20.730  22.087  22.423
   20.938  21.817  18.786  17.423  15.582  16.907  20.069  22.494  19.562  18.088
   19.154  21.560  16.509  17.214  19.080  17.539  14.720  16.305  16.916  20.290
   16.690  17.895  14.997  15.322  18.466  13.830  16.279  15.271  19.633  17.872
   16.703  17.266  15.677  16.785  15.656  11.204  13.076  15.240  16.050  17.823
   19.804  14.413  15.347  16.137  12.122   9.192  10.313  13.944  12.988  17.295
   10.117   9.734   9.281   9.555   7.229   7.162   3.900   9.791   9.669  13.179

    0.700  17.899
   24.445  25.260  23.699  22.393  20.525  20.368  18.771  17.132  19.448  22.140
   21.085  25.127  22.687  19.959  18.995  18.875  18.442  21.773  18.806  22.245
   25.370  24.860  23.507  20.334  21.667  19.237  18.761  14.476  19.428  18.623
   25.178  20.753  20.763  19.008  18.272  18.325  16.300  21.466  21.511  22.740
   20.978  22.787  18.257  17.883  15.485  17.195  19.276  21.155  18.917  17.707
   19.924  21.574  16.255  17.076  18.531  17.713  13.365  16.647  16.694  19.471
   15.398  17.323  15.199  15.167  18.515  14.489  15.370  15.666  19.446  17.783
   16.442  18.057  15.729  17.624  15.811  10.963  13.108  14.697  16.322  17.722
   20.337  14.366  14.224  15.913  11.655   9.441   9.019  14.054  12.600  18.012
   11.879  10.542   8.709   9.244   7.455   7.244   3.197   9.419   9.712  13.414

    0.750  17.352
   24.579  24.679  23.983  22.310  20.525  20.326  17.819  17.579  20.476  22.047
   20.533  24.568  23.341  20.784  18.719  20.022  18.744  22.152  18.893  21.901
   25.947  24.503  23.388  20.296  22.452  18.902  19.525  15.222  20.183  17.545
   25.836  20.186  20.812  18.109  18.988  18.504  16.605  21.266  21.826  22.085
   21.096  22.783  19.274  17.709  16.264  18.184  19.274  21.283  18.315  19.304
   20.012  21.258  15.612  16.772  17.427  17.640  13.531  17.821  16.837  19.813
   15.373  16.627  15.260  14.421  19.543  14.991  14.044  15.940  18.188  18.740
   16.211  17.887  16.117  18.207  15.170  12.002  13.578  14.987  16.296  17.827
   21.486  13.882  13.272  15.994  11.159   9.429   9.274  14.375  12.872  18.574
   11.938  10.571   9.569   9.599   7.349   7.898   3.914   8.528  11.780  12.949

    0.800  17.270
   24.435  23.534  23.974  23.662  20.914  20.689  17.149  17.363  21.830  23.373
   20.032  25.694  22.460  21.116  18.304  19.874  17.618  21.537  18.581  22.636
   26.491  24.518  22.272  20.190  22.234  18.832  19.632  15.822  19.505  18.606
   24.391  21.085  21.399  18.047  19.370  18.278  17.299  21.443  22.029  21.917
   21.037  23.162  19.087  17.486  16.239  19.017  19.050  20.907  19.130  19.601
   19.142  21.285  16.353  16.592  16.839  18.416  14.248  17.681  16.356  20.687
   14.153  16.551  14.531  14.738  19.188  14.755  14.202  17.316  17.681  18.672
   16.291  17.332  16.414  17.712  15.606  12.189  14.089  14.674  17.124  18.229
   21.308  13.912  12.998  16.053  12.101   9.515   9.270  14.463  14.171  19.291
   11.993  10.841  10.079  10.150   8.195   8.076   4.774   7.525  11.709  12.398

    0.850  16.153
   24.689  23.040  23.994  23.771  20.688  20.169  17.992  17.261  20.921  23.488
   20.881  26.089  22.490  20.779  18.340  19.362  17.417  21.401  18.729  22.406
   26.580  23.957  22.293  20.716  21.568  18.852  20.153  16.370  20.986  19.303
   23.695  21.112  21.201  17.272  18.947  17.587  17.782  21.332  21.661  22.987
   21.031  22.268  20.378  16.635  16.665  19.013  19.300  19.917  18.206  20.058
   18.901  21.350  16.197  15.842  15.935  19.059  14.273  17.531  16.381  20.746
   14.977  17.038  15.078  14.631  20.202  14.846  14.455  16.606  17.722  19.358
   15.713  15.939  14.788  17.664  15.819  12.516  14.431  13.739  17.870  17.999
   18.809  13.730  12.816  15.677  12.603   8.991   9.621  13.556  14.896  18.557
   11.674  11.562  10.756  10.125   8.683   9.993   3.764   7.003  12.136  12.681

    0.900  16.832
   24.123  22.615  23.569  22.863  20.844  19.163  18.677  17.674  20.757  23.074
   21.017  25.776  23.088  20.680  18.941  19.454  16.962  21.349  19.563  23.336
   26.963  24.359  22.561  22.860  21.140  18.447  19.668  17.527  21.378  19.096
   23.750  21.024  21.282  16.984  16.542  17.606  19.371  22.705  20.859  23.705
   21.726  21.844  20.389  16.639  17.105  18.589  18.858  20.289  18.656  20.191
   19.180  22.343  17.368  16.146  15.987  18.252  15.169  16.561  16.439  19.994
   15.311  16.949  13.979  13.830  20.506  15.836  14.370  16.403  17.868  18.602
   15.789  15.808  15.310  17.409  16.124  12.530  14.076  13.913  17.625  17.189
   18.099  13.430  14.383  16.398  12.340   9.330   8.457  13.266  15.779  17.718
   11.344  11.495  10.699   9.817   9.174  10.425   3.550   6.540  12.742  13.043

    0.950  17.383
   23.376  23.636  24.154  22.482  20.727  18.993  18.572  18.077  21.550  22.777
   20.047  24.459  23.752  20.723  17.818  18.538  17.260  21.129  19.642  23.339
   26.091  24.002  22.742  22.616  21.443  19.154  19.490  17.191  20.688  18.797
   23.812  20.045  20.818  18.416  17.184  17.832  19.679  22.203  20.465  24.042
   22.086  22.849  20.176  17.288  16.141  18.895  19.734  21.413  18.458  21.020
   19.380  21.833  16.912  16.822  16.752  17.097  15.656  16.601  17.134  19.218
   15.473  17.369  13.215  14.776  20.227  16.544  15.028  16.500  16.800  19.025
   15.607  15.975  16.077  17.413  16.610  11.183  13.855  13.001  17.309  17.324
   18.884  13.496  14.337  15.537  12.264  10.508   9.299  12.700  15.917  17.460
   10.953  11.876  10.302  10.136   8.814  10.225   2.885   5.955  12.752  13.672

    1.000  16.953
   22.955  24.290  25.060  22.641  20.021  20.082  18.200  18.865  21.641  21.948
   20.730  23.713  23.957  20.048  18.048  19.097  17.804  20.745  20.662  23.542
   25.584  23.183  23.499  22.577  20.867  19.778  19.622  16.713  20.563  19.175
   24.505  21.469  20.984  19.387  17.396  17.733  19.700  21.221  19.781  24.414
   22.173  22.038  18.980  16.725  15.543  19.183  20.714  21.802  19.051  20.446
   19.427  21.687  17.262  15.269  16.107  16.576  14.895  16.887  16.425  19.979
   15.274  17.837  12.868  15.320  19.947  15.313  14.953  16.971  16.611  18.728
   15.776  16.528  15.140  18.396  17.273  11.011  13.493  12.810  16.967  17.037
   19.329  14.014  13.668  15.695  11.811  11.296  10.329  12.462  15.319  18.229
   10.594  12.169   9.027  10.465   9.245  11.057   2.775   6.460  13.688  13.463

    1.050  17.723
   23.021  23.440  25.672  22.364  20.979  20.295  18.436  18.300  22.264  22.451
   20.179  22.823  23.522  20.092  18.145  18.855  17.139  20.843  19.629  22.210
   25.139  23.477  23.345  22.275  20.401  18.813  19.522  16.353  20.931  19.880
   24.829  21.821  20.590  19.481  17.504  16.178  20.136  21.238  18.716  24.051
   21.834  22.577  19.724  16.574  17.136  19.112  20.564  21.065  19.294  20.174
   19.591  21.584  17.216  14.698  17.178  17.002  15.393  17.515  16.133  20.768
   15.934  17.603  13.156  17.281  19.256  14.735  15.190  16.539  17.253  19.682
   16.050  16.734  13.492  18.101  17.432  10.608  13.217  12.969  17.762  18.078
   18.784  13.681  13.714  16.054  10.534  10.892  10.012  12.614  15.667  18.706
   11.021  11.322   9.133  10.621   8.595  11.048   3.456   6.113  13.966  13.472

    1.100  16.879
   22.817  23.578  26.072  22.660  20.612  20.240  19.079  17.658  22.122  21.911
   20.278  22.933  23.673  22.100  16.444  19.299  16.798  20.126  19.222  20.877
   25.374  23.262  23.887  23.034  19.391  18.284  19.208  16.016  21.698  19.688
   24.613  21.832  20.118  20.303  17.398  16.705  19.866  20.846  19.034  23.423
   22.474  22.652  19.707  15.944  17.649  18.494  20.073  20.428  18.367  20.671
   19.559  21.866  16.852  14.370  17.021  18.420  16.027  18.944  15.735  21.269
   16.162  18.003  15.622  17.683  18.652  14.825  15.672  16.662  17.223  20.313
   15.928  17.720  14.486  17.303  17.843  10.203  13.442  12.781  17.031  19.515
   17.740  14.030  13.091  15.800  11.575  11.340  10.653  13.333  17.057  18.678
   10.282  12.288   8.999  10.602   8.468  10.192   3.394   6.081  14.045  13.681

    1.150  17.059
   21.708  24.241  25.547  22.098  20.768  20.539  18.313  17.281  20.496  22.124
   19.256  22.928  23.545  22.109  17.219  19.193  15.585  19.114  18.384  21.346
   26.472  23.082  23.928  21.161  19.263  18.725  19.501  16.386  21.872  19.775
   24.262  21.250  19.953  19.985  17.665  16.951  19.865  20.371  19.441  23.937
   22.855  22.285  19.455  16.816  15.979  18.446  19.985  19.784  19.473  21.207
   19.787  21.688  16.619  14.752  16.733  18.305  15.787  18.230  15.874  21.376
   15.654  18.383  16.178  17.669  18.027  14.828  15.893  16.345  16.801  19.611
   16.571  18.011  14.756  17.581  15.812  10.100  14.118  12.577  17.780  19.328
   16.606  12.802  13.429  15.734  12.354  11.024  10.780  13.557  17.546  18.534
    9.640  11.766   8.332  11.143   8.642   9.414   3.874   6.317  14.472  14.493

    1.200  17.328
   22.459  25.029  23.987  20.230  20.607  20.361  16.789  17.042  20.280  22.546
   19.598  22.849  24.402  23.056  17.522  19.056  15.712  19.475  19.226  20.064
   26.635  23.753  23.896  20.448  19.907  19.030  20.510  16.636  22.128  19.348
   24.764  21.458  20.378  19.949  17.976  17.134  19.561  19.794  20.015  23.308
   23.577  22.628  19.565  16.715  15.710  18.800  19.314  19.821  18.979  22.363
   20.200  23.470  17.311  14.908  16.644  18.746  15.831  17.077  15.459  21.309
   15.383  17.833  16.441  17.493  16.574  15.959  15.954  16.213  17.090  18.677
   16.800  18.749  14.029  17.165  15.331  10.027  14.121  11.886  17.396  19.886
   16.294  12.808  13.461  15.520  12.216  10.918   9.966  13.545  16.852  19.018
    9.955  12.009   8.659  11.434   7.346   8.273   3.906   6.088  13.467  14.802

    1.250  17.236
   22.982  25.572  24.399  20.111  20.838  20.406  17.253  15.827  20.554  22.766
   20.439  22.375  24.570  23.326  17.962  19.184  15.525  19.554  19.352  20.266
   26.188  23.090  24.166  21.621  19.148  18.847  20.683  17.514  22.047  19.689
   25.630  22.005  20.103  19.821  19.171  17.080  19.462  19.309  20.823  22.505
   23.793  22.336  19.494  16.759  15.168  18.464  18.737  20.553  17.855  21.696
   18.623  23.078  17.728  15.575  16.369  18.761  17.176  17.301  16.008  20.748
   16.030  17.189  16.551  17.380  16.655  16.094  15.543  15.556  17.896  19.034
   15.922  17.775  14.153  17.212  15.390  10.502  13.183  12.441  17.544  19.761
   16.295  12.685  13.560  15.609  12.667  10.836  10.009  12.796  17.267  19.394
   10.057  11.044   7.887  10.715   7.178   7.806   2.975   5.174  12.770  14.793

    1.300  17.421
   22.518  26.092  24.264  19.863  21.667  20.277  17.974  15.743  20.086  21.904
   20.480  23.610  23.937  23.238  17.878  18.952  15.051  19.430  18.879  21.481
   25.430  23.417  24.625  20.802  19.906  19.456  20.880  17.321  21.496  19.660
   25.200  22.166  20.632  19.110  18.855  17.230  19.026  18.824  21.136  22.796
   23.398  22.464  20.022  17.041  15.340  17.942  18.871  21.273  17.335  21.350
   18.585  21.811  16.196  15.967  16.809  19.641  16.496  17.373  16.175  20.830
   16.378  17.719  16.836  17.387  17.613  16.010  14.872  16.264  18.233  18.301
   15.218  17.384  13.621  16.936  15.064  11.359  12.608  13.082  18.599  19.141
   16.183  12.706  13.097  15.173  11.934  10.497   9.034  13.078  18.143  19.149
    8.999  12.271   7.993  10.538   7.270   8.349   2.130   5.543  13.717  13.511

    1.350  17.299
   23.318  25.843  24.203  20.172  20.738  21.000  18.116  16.069  20.309  21.164
   19.701  24.735  23.223  23.410  18.883  20.010  15.895  18.962  18.923  21.980
   24.918  23.341  24.816  20.436  19.844  18.231  20.959  17.823  21.416  20.183
   25.041  20.277  20.796  18.843  18.854  17.851  19.386  18.808  20.922  21.254
   23.123  23.002  20.452  16.392  15.548  17.522  19.119  20.890  17.038  20.396
   18.880  21.635  16.117  15.792  17.136  20.149  16.822  17.583  16.499  21.151
   16.688  17.235  16.895  17.766  17.882  16.145  14.502  16.311  18.398  17.882
   15.448  17.877  13.597  16.909  14.674  10.891  12.873  13.313  18.521  19.221
   16.577  13.874  12.685  14.924  13.312   9.835   9.078  13.196  17.980  18.405
    9.059  11.889   8.879   9.840   7.012   8.189   1.456   7.402  14.048  13.302

    1.400  18.347
   23.253  24.888  24.719  20.023  22.210  21.039  17.121  16.550  19.977  20.712
   20.645  24.238  23.871  23.033  18.306  19.777  15.148  18.934  18.553  21.752
   24.330  22.756  25.474  20.368  19.950  18.926  21.414  18.373  21.323  20.449
   24.035  20.614  21.157  18.806  18.962  18.881  19.447  20.103  20.235  20.811
   23.072  22.659  19.980  16.233  16.346  18.367  19.071  20.410  16.851  19.426
   19.913  22.405  16.983  14.572  18.128  19.392  16.045  16.694  16.652  20.743
   17.334  17.808  17.048  18.489  18.152  16.126  15.278  16.028  17.718  17.343
   15.565  18.281  13.982  17.493  15.885  10.035  13.041  13.237  17.303  19.298
   16.460  14.879  10.939  14.650  13.290  10.316   9.683  13.968  17.855  18.562
   10.064  13.082  10.132   9.955   7.302   7.865   2.335   7.163  14.518  13.385

    1.450  17.595
   23.239  25.525  25.732  21.134  22.330  20.049  16.922  15.551  20.472  20.769
   20.690  25.099  23.782  22.103  18.540  20.262  16.118  19.669  17.322  21.993
   23.858  23.181  25.068  21.299  20.493  19.331  19.907  19.028  20.661  21.400
   25.342  19.807  21.234  18.129  18.227  19.698  20.387  19.756  20.056  21.859
   22.523  22.734  19.539  17.560  15.721  18.377  19.632  20.561  16.764  18.439
   19.216  23.912  15.994  14.741  18.276  19.254  15.368  16.932  16.853  20.593
   16.631  18.619  16.631  18.770  17.631  15.679  15.700  15.799  17.631  17.009
   15.003  18.766  14.494  16.948  15.537  10.623  13.158  13.987  17.282  19.423
   16.740  14.422  11.186  14.040  12.666  10.826   9.859  13.456  17.448  18.803
    9.822  13.656   9.596   8.966   6.928   5.817   2.806   6.520  14.163  13.207

    1.500  17.559
   23.568  25.079  26.461  20.551  21.474  19.174  17.674  14.913  20.581  20.886
   19.706  24.789  23.914  22.065  18.817  20.226  15.056  19.239  18.758  23.883
   24.749  23.194  24.761  20.868  21.897  19.099  20.365  19.290  21.223  21.659
   24.163  20.780  20.619  18.885  19.276  20.238  20.148  19.379  19.895  22.730
   22.820  22.841  19.378  18.041  15.276  17.277  21.200  21.003  16.549  18.780
   19.754  23.378  15.502  15.101  18.438  18.518  15.286  17.184  17.312  19.972
   16.414  17.662  17.578  18.998  17.805  16.784  16.025  14.099  17.378  17.233
   14.330  19.175  14.616  16.965  15.268   9.886  12.555  14.116  16.140  19.022
   16.932  14.866  11.849  14.669  12.661   9.611   9.806  15.017  17.695  19.167
    9.720  13.878   9.529   9.075   6.506   7.315   3.945   6.657  14.110  13.139

    1.550  18.122
   23.755  25.051  27.263  21.281  21.349  18.736  17.179  14.859  20.481  21.452
   18.669  25.300  23.372  23.658  19.016  18.877  15.162  19.607  18.435  24.519
   25.285  23.069  23.652  21.099  20.921  18.688  20.495  19.303  21.350  20.994
   24.602  20.070  20.093  19.135  19.995  19.806  20.027  19.912  18.816  21.733
   22.502  23.025  19.017  18.766  15.863  16.992  20.773  20.827  16.717  17.835
   20.803  23.017  16.096  15.190  18.570  18.272  15.726  16.221  17.156  19.954
   15.872  19.175  17.058  17.972  16.790  16.847  16.386  13.293  16.518  17.473
   14.768  19.051  15.794  16.660  14.793   9.623  12.784  13.281  15.857  18.489
   16.852  14.456  12.337  15.103  13.772  10.144   9.931  14.898  18.443  19.473
   10.271  13.955   8.376   9.436   6.448   7.350   3.876   7.323  13.695  13.081

    1.600  17.892
   23.070  24.778  27.424  20.739  21.837  19.392  17.263  15.402  19.287  22.439
   18.608  24.532  23.081  24.597  18.764  18.819  15.725  17.897  17.934  24.284
   26.265  23.227  22.848  21.204  21.143  19.601  20.328  18.099  20.757  20.412
   25.083  20.406  20.643  19.111  19.017  18.772  21.805  20.249  18.963  22.898
   22.198  23.460  19.535  18.618  14.758  16.711  19.669  19.831  16.970  19.353
   21.514  22.593  16.193  15.169  18.391  17.865  15.583  16.809  18.545  20.254
   15.990  19.381  17.142  17.627  16.439  17.536  15.820  14.290  16.065  17.784
   15.216  18.270  15.495  16.004  15.207  10.362  13.173  12.471  14.068  18.469
   16.270  14.842  13.352  14.585  13.908  11.421   9.945  15.668  18.894  19.438
   11.031  13.320   7.193   9.828   6.822   7.284   3.680   6.784  14.189  14.171

    1.650  18.083
   22.960  24.169  27.513  21.763  21.683  19.894  17.647  16.003  19.715  22.950
   18.421  24.716  23.336  23.883  20.653  18.254  15.441  17.429  17.962  23.460
   27.053  22.953  23.717  22.096  20.993  18.906  20.838  17.737  19.771  20.846
   23.767  20.934  21.288  18.848  19.117  19.421  21.058  20.444  19.776  22.879
   21.261  23.721  20.106  17.957  14.887  17.380  19.790  18.767  17.703  19.069
   21.158  23.396  16.216  16.373  19.142  18.063  16.009  17.426  18.186  19.818
   15.752  19.274  16.782  16.975  16.351  15.296  16.268  14.612  15.718  18.352
   15.909  17.464  14.455  16.054  15.251   9.996  11.396  11.969  14.472  19.810
   16.520  15.419  13.182  13.411  13.382  11.665   9.857  14.927  18.064  19.305
   10.540  13.492   8.382  10.855   6.739   7.868   4.078   7.617  14.157  13.890

    1.700  18.492
   23.316  23.569  27.576  21.074  22.338  19.488  17.597  15.354  19.932  22.605
   19.756  24.920  23.623  23.341  20.994  18.768  15.502  16.323  18.167  22.607
   26.273  23.371  23.747  22.384  20.639  17.976  20.100  16.943  18.776  21.078
   22.419  20.221  22.083  19.124  19.846  18.955  21.109  21.183  20.504  22.537
   21.395  23.470  19.820  16.613  14.256  17.635  18.931  20.201  17.486  19.363
   20.802  22.052  17.787  16.859  19.911  18.233  16.022  18.020  18.210  20.600
   15.726  18.916  16.935  17.381  16.465  14.902  16.957  14.769  15.376  19.168
   16.680  17.834  14.363  16.244  15.066  10.777  11.350  11.297  14.625  20.464
   15.815  16.032  13.148  13.494  13.859  11.166  10.278  14.672  17.362  20.264
   10.721  13.359   9.340   9.407   7.227   7.551   4.183   6.978  14.660  14.335

    1.750  18.999
   23.578  24.106  27.232  20.764  22.248  20.329  17.043  16.288  18.928  22.554