
This full-field turbulence file was generated by TurbSim (v1.40, 12-Sep-2008) on 21-May-2021 at 12:51:38.

 | w-comp |  Y  x  Z  | Grid Resolution (Y x Z) | Time-step | Hub Elev | Mean U |
            10    10     15.556     15.556          0.050      80.00     25.00

 Z Coordinates (m):
  -70.000 -54.444 -38.889 -23.333  -7.778   7.778  23.333  38.889  54.444  70.000

 Y Coordinates (m):
  -70.000 -54.444 -38.889 -23.333  -7.778   7.778  23.333  38.889  54.444  70.000

    0.000   1.551
    0.787  -0.173  -0.062   0.616   0.767   0.017   3.860   2.926   0.620  -2.541
   -1.712  -2.796  -0.102   1.476  -0.185   0.897  -0.054   1.901   2.388   2.819
    1.515   0.464   0.652   1.492  -3.062  -2.447  -3.390   0.449   0.302  -0.917
    0.488   0.270  -2.017   1.425  -1.626   0.028  -1.557  -2.067  -2.979   1.270
   -0.883   0.175   0.354   0.826   1.330  -0.804  -1.836   1.356  -2.910   1.884
    0.292  -1.569   0.425  -2.069  -0.394   1.535  -0.014  -0.513  -2.998  -3.546
    1.144   1.385   2.957   0.427   0.770  -1.247   0.059  -0.168  -1.457  -1.342
   -0.167  -1.769   3.963   1.666  -0.609  -2.208   1.975   2.336   1.356   0.101
    0.036  -0.427   0.733   2.156  -0.596  -3.133  -1.133   2.720   3.826   1.068
   -3.340   2.601   0.047   0.600   1.431  -0.887  -1.532  -1.054  -2.397  -1.664

    0.050   1.323
    0.668  -0.237   0.101   0.430   0.432   1.104   3.561   2.509  -0.239  -3.575
   -1.013  -2.023  -0.578   0.201  -0.495  -0.673  -0.012   0.556   1.252   1.939
    0.232   1.248   1.453   1.484  -2.226  -1.920  -3.387   0.290   0.633  -2.060
    1.745  -0.624  -1.117   0.888  -1.976  -0.407  -1.328  -1.322  -3.010   0.470
   -1.923   0.239   1.036   0.836   1.537  -1.255  -2.765   1.502  -1.525   0.673
   -0.481  -0.929   0.634  -2.573  -0.656   1.493   0.752  -0.844  -1.514  -3.381
    1.154   2.134   2.937   0.297   0.706  -1.054  -0.542   1.433  -1.393  -1.983
    0.131  -2.413   2.683   1.763  -0.790  -2.969   1.730   1.676   1.398  -0.060
   -1.577  -0.301   1.289   2.947   0.379  -4.607  -0.243   1.361   1.480   1.804
   -2.683   2.005   0.742   1.028   1.544  -0.199  -0.871  -2.120  -2.030  -1.461

    0.100   2.451
    1.257  -0.782  -0.143  -0.621  -0.599   0.861   3.198   2.413  -1.069  -2.674
   -0.608  -2.395   0.679   2.081  -1.147  -2.024  -0.590   1.668   1.687   0.810
   -0.159   1.711   1.461   1.520  -2.128  -1.418  -3.358   1.190   0.157  -1.079
    2.387  -1.030   0.415   1.046  -2.451  -0.662  -1.643  -0.696  -3.735   0.950
   -3.135  -0.535  -0.282   1.283   2.703  -0.825  -2.961   0.350  -0.261   0.054
   -0.176  -0.141   0.620  -1.624   0.619   1.360   0.071  -0.793  -0.300  -4.586
    1.404   1.321   1.739  -0.120   0.857  -0.254   0.821   1.121  -0.589  -0.556
    0.295  -3.420   2.122   1.236  -1.904  -2.644   0.848   2.574   2.530  -0.297
   -1.339   0.522  -0.308   2.088   0.210  -3.330   0.901   0.644   2.427   2.280
   -3.610   1.193   1.166   1.626   2.597   0.511  -1.018  -2.436  -2.828  -2.338

    0.150   1.394
    0.595   0.241   0.088  -0.126  -0.899   1.228   2.986   2.137  -0.638  -2.660
   -0.324  -2.846  -1.222   1.853  -0.709  -0.245  -0.029   1.765   0.988   0.513
    0.796   2.680   0.617   1.509  -1.568  -0.838  -2.090   0.103   0.420  -1.205
    1.186   0.383  -0.121   1.706  -2.960   0.264  -0.524  -1.487  -3.220   0.569
   -1.861   0.930  -0.060   1.787   2.565  -0.848  -3.195  -0.343   0.005  -0.227
    0.745  -0.183  -0.242  -1.439   0.692   0.426  -0.682  -2.086  -0.973  -2.868
    1.049   1.552   0.993   1.293  -0.292   0.181   1.219   0.479  -0.772  -0.362
    1.918  -4.325   2.622   0.910  -0.755  -0.121  -0.404   3.428   1.926  -0.071
   -1.996   1.126   0.058   2.850   0.129  -3.613   0.192   0.910   1.720   1.625
   -3.375   2.079   1.403   1.845   2.783   0.649  -0.543  -2.972  -4.627  -1.051

    0.200   1.343
    1.726  -0.347   0.653  -0.393  -0.539   0.891   2.774   2.536   0.522  -1.559
    0.522  -3.261  -0.668   2.772  -1.553  -1.270  -0.261   1.710   1.300   1.169
    1.747   4.568  -0.219   1.468  -0.682  -0.869  -2.420   1.005   0.230  -1.089
    0.881  -0.621  -0.675   1.965  -1.755  -0.005  -0.495  -2.635  -2.017   0.449
   -1.791   0.855   0.991   0.997   2.456  -0.620  -2.824  -1.678  -0.591  -0.407
    0.859  -0.380  -0.275  -1.821   0.376   1.259   0.289  -0.673  -0.488  -1.067
    1.289   1.208   0.928   1.694   0.227  -0.525   1.077   0.113  -0.115   0.664
    1.355  -3.955   1.759   1.102  -0.818  -0.794  -0.510   3.035   1.747  -0.415
   -1.264  -0.097  -1.021   2.822  -0.467  -2.557  -1.237   0.030   1.408   0.665
   -2.825   1.373   1.292   0.305   1.928  -0.723  -0.059  -1.959  -4.317  -1.788

    0.250   1.313
    0.287   0.186  -0.738   0.180  -0.259   1.611   3.226   3.692   1.055  -1.442
    0.327  -3.048  -0.753   1.823  -1.259  -2.082  -0.928   1.852   1.177   1.425
    1.455   5.448   0.100   2.435  -0.067  -1.517  -1.669   1.179  -0.042  -1.535
    0.437   0.784  -0.654   2.474  -2.398   0.009  -1.562  -2.069  -2.306  -0.534
   -2.169   0.979   0.447   0.247   1.639  -0.668  -2.063  -1.620   0.251   0.042
    0.083  -1.105  -0.575  -1.140   0.828   2.295   0.632  -0.920  -0.357  -0.332
    2.157   2.201   0.786   0.032  -0.208   0.055   0.719  -0.216   0.070  -0.301
    1.061  -3.330   2.270   1.598   0.140   0.303  -0.700   2.568   1.397  -0.095
    0.007  -0.454  -0.450   1.748  -1.750  -4.302  -1.306  -0.951   1.523   0.788
   -2.723   1.842   0.775   1.629   2.115  -1.054  -0.130  -2.287  -3.449  -2.358

    0.300   0.484
    1.122   1.904  -1.206  -0.073  -0.264   0.720   4.601   2.818   1.232  -2.922
    0.163  -2.477  -1.204   1.780  -1.456  -3.032  -1.266   2.410   1.812   0.134
    1.026   5.658   0.217   2.266  -0.149  -1.180  -1.435   0.818   1.348  -0.025
   -0.448   0.494  -0.147   2.062  -2.791  -0.222  -1.308  -0.691  -0.709  -0.599
   -2.430   0.710  -0.306  -0.465   1.485  -0.285  -2.409  -2.097   1.026  -1.212
   -0.742  -0.236   0.254  -0.073   0.521   1.367   0.779  -1.766   0.159   0.749
    2.853   1.469   0.453  -0.620  -0.120   0.217   0.154   0.817  -0.537  -1.141
    1.103  -2.220   3.173  -0.317  -0.490   0.476  -1.032   2.443   0.287  -0.257
   -0.200  -0.157   0.095   0.974  -1.727  -3.577  -1.379  -1.134   1.375  -0.526
   -2.165   2.253   0.667   1.177   1.746  -0.663  -0.380  -1.091  -4.396  -2.134

    0.350   0.905
    0.793   1.688  -0.842  -1.321  -0.571  -0.638   4.896   1.388   0.750  -3.067
   -0.817  -2.455  -0.429   1.946  -1.360  -1.906  -2.295   2.462   1.290   2.155
    0.977   5.641  -0.242   2.358  -0.576  -0.101  -0.491   0.930   1.519  -0.740
   -0.823   0.322   0.297   1.455  -1.911   0.220  -0.053   0.037  -1.652   0.204
   -1.049   0.220   0.302  -1.585   1.032  -1.515  -2.504  -2.149   0.039  -0.614
   -0.010  -0.736   2.660   0.476   0.446   2.014  -0.373  -2.827  -0.086  -0.094
    3.305  -0.128   1.121  -0.564   0.537  -0.078  -0.020   0.795  -0.849  -0.692
    0.808  -1.241   2.050   0.686  -0.067  -0.225  -0.078   1.975  -0.575  -0.474
   -0.243   1.067  -0.335   0.858  -1.447  -3.659  -1.652  -0.596   2.121  -0.887
   -2.464   0.504   0.852   1.541   2.351   0.019  -0.896   0.104  -3.805  -0.986

    0.400   0.962
    1.161   1.761  -1.843   0.098  -0.603  -0.459   5.429  -0.156   0.469  -4.267
   -1.198  -2.989  -1.135   0.616  -0.915  -1.414  -2.614   1.648   1.913   1.766
    1.793   3.981  -1.172   1.830  -0.187   0.253   0.667   2.051   1.155  -1.322
   -0.785   0.318   0.270   0.837  -2.181   1.411  -0.617  -0.757  -1.717   0.457
   -1.324  -0.302  -1.031  -1.106   0.779  -2.402  -0.967  -1.465   0.139  -0.811
   -0.441  -1.934   2.007   0.159   0.220   0.821  -1.421  -1.623  -1.064  -2.096
    1.633  -0.040   0.925  -1.570   0.504  -0.136   0.274   0.218  -0.602  -1.390
    1.280  -1.840   2.781   1.227   0.443  -0.310   0.443   1.449  -0.584  -0.334
   -0.895  -0.143  -1.260   2.178  -0.355  -2.198  -2.099  -0.879   1.948  -1.259
   -2.631   2.151   0.926   1.272   1.606  -0.492  -0.413   0.323  -3.666  -1.790

    0.450   1.016
    1.619   1.823  -1.986  -0.236  -2.465  -0.564   4.575   0.291  -0.732  -3.123
   -1.205  -1.507  -0.360  -0.344   0.110  -0.378  -2.779   1.376   1.685  -0.025
    1.095   3.232  -0.382   2.661  -0.275  -0.112  -0.238   1.604   0.839   0.287
    0.235   0.113   1.069  -0.278  -1.264   1.088  -0.541  -1.441  -1.609   0.752
   -1.751  -1.186  -0.841  -1.374   0.747  -2.310  -0.082  -1.209  -0.919   0.426
   -0.166  -1.996   0.827   0.092   1.408  -0.022  -1.220  -1.023  -1.979  -3.601
    0.245  -0.669   0.308  -0.544  -1.039  -0.944  -0.316  -0.078  -1.049  -0.637
    2.062  -1.397   2.823   1.490   0.802  -1.515   0.984   1.299   0.233  -0.403
   -1.187  -1.162  -1.567   1.668   0.013  -1.725  -3.045  -0.270   2.429  -0.111
   -3.315   3.464   0.643   0.567   0.775  -2.058  -0.394   0.872  -4.961  -0.901

    0.500   1.140
    0.774   2.045  -0.766   1.281  -1.733  -1.062   4.161   1.262  -0.850  -2.766
   -1.323  -1.403   0.091   0.252   0.771  -1.376  -1.077   0.756   1.780  -1.293
    1.082   2.396  -2.516   3.258  -0.555  -0.086  -1.031   2.222   1.093   0.404
    0.186  -0.724   0.892   0.554  -1.842   0.271   0.092   0.153  -1.579   0.722
   -2.592  -0.582  -1.415  -0.710   0.015  -2.586  -0.188  -1.602   0.143  -0.662
    0.500  -2.145  -1.055   0.506   0.690   0.366   1.020  -0.841  -2.714  -3.844
   -0.165  -1.094  -0.057  -0.224  -1.356  -0.777  -0.535   1.916  -0.612   0.986
    2.501  -0.905   1.775   2.100   1.188  -1.960   0.676   1.844   0.984   0.352
   -1.248  -0.024  -1.122   1.139   0.087  -0.011  -1.934  -0.090   2.562   0.747
   -3.531   2.845   0.144   0.692   1.149  -0.598  -0.533   2.174  -5.785   0.566

    0.550   1.530
    0.864   2.314  -0.678   1.359  -1.195  -0.973   4.597   2.268  -0.551  -3.193
   -2.672  -2.054  -0.212   0.006  -0.318  -1.621  -1.409   0.370   2.591  -2.464
    1.322   1.562  -1.933   3.697  -0.880  -1.308  -1.492   1.987   1.335   1.688
   -0.286  -0.139   2.759   0.901  -2.316  -0.423   0.042  -0.097   0.806   1.720
   -2.248  -0.515  -0.931  -0.103  -1.177  -1.017   0.473  -2.809  -0.604  -0.664
   -1.364  -2.277  -0.312  -1.019   1.739   0.991  -0.494  -1.811  -3.221  -3.679
    0.052  -0.604  -0.299  -0.710  -1.801   0.039  -0.364   1.095   0.588  -0.428
    1.788  -1.186   0.879   2.045   1.175  -1.952   2.567   1.141  -0.327   0.491
    0.328  -0.434  -0.289   1.091   0.188  -1.731  -1.152  -0.118   3.340   0.523
   -2.707   1.413  -0.534   0.425   0.502   0.324  -1.499   1.519  -5.709   1.202

    0.600   1.037
    1.272   1.680  -1.030   1.638  -2.619  -0.534   4.648   2.450   0.379  -1.906
   -4.084  -2.105   0.492   1.435  -1.608  -1.538  -2.121   1.750   2.618  -2.487
    1.271   0.748  -2.889   3.230  -1.042  -0.209  -1.630   0.630   0.286   1.815
   -0.008  -0.415   1.805   0.329  -1.690   0.364  -0.229  -0.836   1.613   1.499
   -1.894  -1.211  -2.039  -0.932  -0.868  -2.041   0.446  -3.675  -1.996  -1.199
   -0.520  -1.175  -0.592  -1.132   0.955   1.102  -0.836  -1.181  -2.415  -2.528
   -0.292  -0.063   0.491  -0.854  -1.324  -1.286   1.100   0.427   0.997   0.959
    1.143  -1.889  -0.399   0.563   0.627  -1.577   1.980   0.667  -0.119  -0.056
    0.640  -0.868  -0.614   1.488   0.706  -2.347  -2.508   0.674   3.634   0.304
   -1.846   1.940  -0.355  -0.550   1.477  -1.307  -2.113   1.020  -3.346   1.335

    0.650  -0.102
    1.024   1.097  -0.914   1.165  -3.539  -0.444   4.674   1.485   0.231  -2.968
   -3.430  -2.503  -0.001   1.451  -0.868  -1.194  -1.896   1.325   2.621  -2.214
    0.653   0.870  -3.379   3.085  -1.131  -0.549  -1.005   0.736  -0.676   0.147
   -0.630  -1.283   1.057  -0.987  -1.657   0.616  -1.792  -0.467   1.126   1.711
   -1.842  -0.656  -3.337  -0.807  -0.731  -1.771  -0.940  -2.057  -0.196  -0.020
    1.023  -0.354  -0.886  -1.225   0.757   0.968  -1.115  -1.960  -1.397  -2.950
    1.820   0.276   0.988  -0.251  -0.025  -1.545   0.037   1.422   1.534   0.470
    0.795  -1.342   0.191   1.241   0.842  -1.097   1.142   1.074  -0.645  -1.033
    0.629  -1.737  -1.871   2.121   1.323  -2.270  -3.104   0.458   4.269  -1.415
   -2.861   2.075  -0.285  -1.656   1.644  -0.829  -1.919   0.693  -4.233   1.727

    0.700   1.023
    0.750   1.970  -1.351   0.096  -2.096   0.070   5.121   1.508  -0.356  -2.354
   -2.833  -2.473   0.491   1.043   0.011  -0.315  -1.135   0.995   2.364  -2.034
    2.432   1.792  -2.836   3.233   0.688  -1.176  -0.658   0.864  -0.087   0.765
   -0.411  -1.406   1.087  -0.760  -0.638   1.527  -2.003  -1.197   0.879   2.279
   -2.451  -0.702  -2.856  -1.109   0.024  -0.448  -1.427  -2.011  -0.607   0.394
    0.657  -0.976  -0.758  -0.025   1.459   0.026  -0.390  -1.735  -1.107  -4.614
    1.130   0.245   1.179  -1.166  -0.496  -1.395  -1.226   1.097   0.535  -0.222
    1.395  -0.613  -0.055   0.209   1.254   0.025   1.564   0.976  -0.765  -0.330
    0.701  -0.754  -2.423   1.257   0.177  -1.824  -2.736   0.477   3.291  -1.944
   -3.329   1.742  -0.634  -1.032   0.060  -3.422  -1.812   1.202  -3.849   1.676

    0.750   0.983
    0.141   0.707  -0.842  -0.864  -2.512  -0.471   4.293   1.670   0.446  -1.906
   -2.789  -3.158   0.512   1.042   0.359  -1.007  -2.366   1.546   2.491  -1.275
    3.012   2.026  -2.602   2.071   0.269  -1.116  -0.218   1.315  -0.394   1.600
    0.063  -1.558   0.394  -0.180  -0.234   0.101  -1.461  -1.453  -1.090   1.676
   -1.592  -0.801   0.104  -1.615  -0.021   0.054   0.331  -2.405  -0.391   0.254
    0.190   0.492  -0.324   0.188   0.598   0.361  -0.695  -1.840  -0.687  -3.231
    0.446   0.898  -0.198  -1.780   0.276  -0.121  -2.063   2.065   0.861   0.827
    1.090  -2.200  -0.056   0.579   0.181   0.887   0.952   0.393  -0.808  -0.652
    0.022  -0.466  -1.438   0.331   0.338  -2.227  -0.806  -0.025   2.916  -2.018
   -2.735   1.009  -0.624  -1.151  -0.793  -1.619  -1.764   1.220  -3.798   1.607

    0.800  -0.703
    0.797  -0.022  -1.491  -0.573  -2.202  -0.093   3.086   0.906   0.412  -1.371
   -1.952  -1.988   1.598  -0.844   1.013  -0.243  -2.333   1.608   1.771  -0.598
    2.731   1.275  -2.210   2.351   0.694  -0.225  -0.088   0.297  -0.278   2.257
    0.251  -0.735   0.843   0.522   0.786  -1.073  -0.732  -2.718  -0.358   1.960
   -1.333  -0.685   1.409  -2.721   0.283   1.092   0.771  -2.507  -0.435  -0.438
   -0.064   0.071  -0.952   0.369   0.558   1.024  -1.174  -1.477   0.983  -2.863
    0.656   0.601   0.074  -1.606   1.742   0.046  -0.702   3.415   0.724  -0.364
   -0.568  -1.604   1.753   1.016   1.026   0.630   0.989  -0.015   0.473   0.201
   -0.269   2.282  -1.484   0.644   0.563  -2.473  -1.554  -0.001   2.028  -1.625
   -2.252   0.780  -1.849  -2.167   0.971  -1.431  -2.167   1.635  -2.719  -0.272

    0.850   0.217
    0.850   0.244  -1.370  -0.747  -2.430  -0.403   3.856   0.847   1.023  -3.060
   -1.490  -2.177   1.014  -0.627   0.650  -0.674  -1.360   2.532   0.866   1.758
    2.319   2.368  -1.867   2.772   0.317  -0.990  -1.934  -1.214  -0.820   2.155
    0.384  -0.836   0.209  -0.442   0.455  -0.811   0.579  -3.381   0.486   1.012
   -0.255  -2.319   0.854  -2.793   0.577   0.286   0.313  -1.783  -0.594  -0.863
    0.229  -0.498  -0.255   0.118  -0.418   0.358  -2.146  -1.501  -0.229  -2.904
    0.375  -1.016  -0.316  -1.977   1.194   0.044  -0.497   3.396   0.280   0.318
    0.381  -2.249   0.769   0.056   0.029   1.104   1.385   0.596   0.801   0.039
   -0.734   2.666  -0.753   0.006   0.846  -1.548  -1.762  -0.005   2.320  -1.866
   -1.612  -0.749  -1.533  -2.731   0.933  -0.683  -1.376   2.412  -3.183  -0.776

    0.900   0.624
   -0.137  -1.021  -2.027  -0.308  -2.777  -0.143   3.304   1.143   1.201  -2.714
   -1.118  -2.604   1.156  -0.065   2.028  -1.398  -2.387   1.359   1.455   1.150
    2.813   3.372   0.176   1.988   1.089  -2.078   0.428  -1.117  -2.009  -0.971
   -0.252  -0.528  -1.688  -0.715   0.264  -2.324  -0.199  -4.571   1.027  -0.116
   -0.217  -2.299   0.996  -3.049   0.443  -0.132  -1.991  -2.147  -0.342  -0.819
   -0.946   0.251  -0.668   0.819  -0.191   1.058  -1.298  -1.435  -1.462  -2.521
    0.154  -0.851  -0.292  -2.864   2.299  -0.787   0.761   3.489  -0.415   0.869
    1.121  -1.258   1.135  -0.154  -0.598  -0.192   1.857   0.929  -0.287  -0.186
    0.196   2.109  -2.332   1.110   1.077  -2.512  -0.679   0.290   2.962  -1.114
   -1.470   0.339  -1.866  -3.409   0.146   0.243  -1.630   1.820  -2.920   0.509

    0.950   0.688
   -1.189  -2.002  -2.199  -0.085  -2.625   1.170   4.241   0.651   1.178  -1.602
    0.488  -1.904   2.062   0.622   2.223  -1.495  -2.800   2.040  -0.389   0.733
    2.316   2.570   1.388   1.292   2.397  -1.000   1.201  -0.522  -2.517  -0.589
   -0.043  -0.627  -0.999   0.139   2.054  -0.658  -0.270  -3.441   0.500   1.093
   -0.832  -2.543   1.021  -1.948   0.575   0.487  -1.479  -1.750   0.009  -1.316
   -0.733  -0.765  -0.497   0.755  -0.554   0.100  -2.193  -0.745  -2.342  -0.764
    1.150  -0.614  -1.341  -3.302   2.858   0.219   0.692   4.478  -0.271   1.600
    0.757  -0.601   1.413   0.141  -0.001  -0.725   2.253   0.588  -0.898  -0.674
    0.539   1.725  -1.455   1.385   0.159  -1.698  -0.992  -0.523   1.825  -2.130
   -1.544   0.178  -3.035  -2.681   1.130   0.625  -0.868   0.234  -3.685   1.756

    1.000   2.101
   -1.575  -1.840  -2.093  -0.940  -1.928   1.210   4.714   1.072   1.582  -0.091
    0.809  -3.031   3.502  -0.440   1.015  -0.989  -2.710   1.034  -0.424   1.227
    2.661   3.413   0.412   0.698   2.322  -0.166   0.420  -2.001  -3.355  -0.693
    1.017  -2.266  -1.083   0.396   0.358  -0.235  -0.882  -3.537   0.567   1.357
    0.975  -1.637   1.000  -0.135   0.677  -0.127  -2.949  -1.080  -0.704  -1.218
   -0.968  -0.167  -1.085  -1.370  -0.119   0.584  -2.575   0.178  -0.767  -2.425
    1.082  -0.497  -1.286  -3.127   2.454   0.458  -0.125   4.890  -0.007   0.924
    2.011   0.291   1.641   0.819  -0.521  -1.112   2.809   0.708  -1.306  -0.533
    0.788   2.619  -1.178   0.300   0.699  -1.805  -1.343  -0.667   2.680  -2.163
   -2.115   0.083  -3.240  -3.044   1.054   0.955  -0.145  -0.485  -2.624   1.826

    1.050   1.541
   -1.876  -0.636  -2.122  -1.823  -1.588   0.731   4.807   2.027   2.264  -1.448
    0.107  -3.168   3.487   0.215   0.057  -0.710  -1.265  -0.128   0.057   2.556
    3.293   2.710   0.143   0.892   2.264   0.061   0.068  -0.391  -2.452  -0.765
    0.204  -1.695  -0.793  -0.294   0.404   1.109  -0.626  -3.244  -0.386   0.149
    0.985  -2.009   1.042   0.669   0.506   0.311  -2.580  -1.238  -1.240   0.100
   -1.243  -0.699  -0.277  -1.017   0.363   1.382  -2.417   0.546   0.295  -3.407
    0.858  -0.710  -1.057  -2.910   0.382   0.059  -0.155   5.231   0.888   1.643
    2.219   0.043   0.776   0.787  -0.048  -0.379   1.664   1.959  -0.286  -0.263
    1.802   2.037  -0.821   1.200  -0.176  -2.123  -1.718   0.659   2.093  -1.894
   -1.298   0.962  -3.203  -2.573   2.149  -0.517  -0.620   0.139  -0.789   2.108

    1.100   1.161
   -0.992   0.008  -2.723  -0.908  -2.560  -0.217   5.311   0.905   2.338  -0.195
    0.834  -2.379   3.284   1.038  -0.079  -0.534  -0.302  -0.267   0.581   4.902
    3.415   2.410   0.685  -0.246   0.889  -0.325  -1.738   0.383  -1.032   0.143
    1.019  -1.606  -0.174   0.087  -0.180   0.912  -0.017  -3.962  -0.488   1.169
    1.480  -2.682   0.534  -0.712   0.024   0.903  -2.160  -0.762  -2.208  -0.477
   -1.025  -2.004   0.509  -1.650  -0.027   1.218  -3.659   0.323   1.065  -2.176
    0.937  -0.161  -1.138  -1.693   1.829   0.438   0.742   4.969  -0.625   1.467
    0.347   0.164   1.421   0.331  -0.196  -0.766   0.825  -0.429   0.432  -0.286
   -0.096   1.898   0.281   1.121   0.364  -1.978  -0.760   0.834   1.874  -1.946
   -1.213   1.877  -2.686  -0.855   2.778  -0.804  -0.700  -0.004   0.362   3.021

    1.150   1.278
   -1.181  -0.901  -3.231  -1.219  -2.631  -0.926   4.270   1.091   1.696  -0.844
    0.635  -1.199   4.183  -0.189  -0.432   0.184  -1.915   0.786   1.784   3.627
    3.568   3.233   1.099   0.553  -0.844  -0.993  -2.089  -1.675   0.190  -0.313
    0.978  -1.019  -0.255   0.658   1.005   1.827  -0.538  -3.961  -0.648   1.368
   -0.015  -1.681  -0.007  -0.975   0.294   0.632  -2.839  -0.627  -1.904  -0.227
   -0.496  -1.904   0.593  -0.255  -1.308   0.575  -2.574  -0.598  -0.256  -1.406
    1.104  -0.248   0.218  -2.480   2.887  -0.283   1.260   5.063  -0.034   0.880
    1.071  -0.592   3.029   1.255  -1.480  -1.762   1.415   0.023  -1.070  -0.986
   -0.255   2.500   0.560   1.799   0.138  -1.568  -2.138   0.139   0.392  -2.696
   -0.705   0.674  -2.739  -0.050   2.635  -1.090  -0.723  -0.475  -0.805   2.807

    1.200   1.416
   -1.754   0.289  -2.297  -0.536  -2.684  -1.553   4.794   1.136   0.506  -1.126
    1.044  -0.672   4.372  -0.108  -0.437  -0.322  -1.935  -0.089   1.316   3.036
    4.053   1.699   0.433   0.845  -1.944  -0.871  -2.917  -1.520  -1.028  -1.125
    1.374   0.139  -0.493   0.500   0.591   2.388   0.110  -3.977  -0.538   1.981
    0.251  -1.231   0.790  -2.778   0.382   1.247  -2.090  -0.883  -0.555   0.468
   -1.068  -1.646   2.098   1.156  -2.249   0.227  -2.509  -1.592   1.212  -0.325
   -0.508  -1.335  -0.086  -3.426   2.276   1.292   1.394   4.771   1.007   0.952
    0.205  -0.287   4.619   2.364  -1.662  -1.286   2.270   0.718  -1.298  -0.779
    0.926   2.413   0.669   1.788  -0.024  -2.584  -1.639  -0.001   0.495  -2.990
    0.407  -0.505  -4.559  -0.365   2.247   0.268  -0.177  -0.304  -1.044   2.997

    1.250   0.128
   -0.994  -0.953  -2.744  -0.943  -3.130  -2.056   5.199   1.771   1.001  -0.510
    1.402  -0.322   3.288   1.356   0.620  -1.109  -3.601   0.501   0.237   1.359
    3.225   1.933   0.266   1.008  -1.363  -1.707  -2.797   1.216  -1.062  -0.435
    1.469   0.088   0.883   1.113   2.065   1.051   0.742  -4.947  -0.361   0.939
    0.370  -1.790   0.000  -1.729  -0.364   2.029  -0.974  -1.774  -0.266  -0.459
   -0.875  -2.153   1.824   0.581  -1.843   1.156  -1.416  -1.778   1.902   0.764
   -1.344  -2.906  -1.499  -3.001   0.694   0.594   0.898   4.665   1.327  -0.116
    1.199  -0.107   4.422   1.165  -1.751  -2.459   3.984   1.572  -1.463   0.620
   -0.618   2.686   0.993   0.601  -1.113  -1.627   0.071   1.803   0.160  -2.162
   -0.862  -0.542  -4.910  -1.170   2.938   0.092   0.004   0.789  -1.840   2.394

    1.300  -0.571
   -0.572  -1.073  -4.080  -0.805  -3.633  -1.918   3.472   0.296   0.144  -0.874
    1.242  -0.623   2.988   0.831   0.713  -0.486  -4.440   0.718  -0.256   2.935
    1.755   3.217  -0.162  -0.472  -0.348  -1.331  -3.481   1.122  -2.082  -0.116
    2.333   0.675   0.283  -0.425   1.977   0.830   0.317  -5.015  -0.110   0.587
   -0.347  -1.214  -1.495  -0.998   1.067   1.476  -0.645  -0.865  -1.343   1.032
   -0.857  -2.300   1.489   1.713  -0.491   0.715  -0.363  -1.722   2.232   1.802
   -0.790  -2.197  -1.386  -2.008   0.753   1.816   1.088   3.332   2.518  -1.223
    1.654  -1.144   4.466   0.585  -1.701  -1.902   3.151   1.814  -1.940   1.111
    0.190   2.306   1.066  -0.217  -0.638  -2.097  -0.170   0.988   1.050  -3.186
   -0.381  -0.053  -4.776  -1.199   2.814   0.542  -0.547   1.348  -0.932   1.885

    1.350  -0.964
   -0.194  -2.279  -3.162   0.191  -3.595  -3.237   3.289   0.658  -0.052  -0.728
    1.404  -0.335   1.446   1.229   0.791  -0.154  -4.175   0.770  -0.797   3.249
    2.022   3.015   0.106   0.673  -0.332  -0.990  -2.374   0.050  -1.741   0.184
    3.340   0.637   0.295  -0.074   0.243   0.822   1.639  -3.775  -0.054   1.065
   -0.171  -1.390  -1.903  -1.133   0.877  -0.025  -1.018  -0.999  -1.082   0.027
   -0.504  -1.268   0.418   1.837  -1.232   0.734  -0.207  -2.124   2.554   2.699
   -0.322  -2.339  -0.957  -1.923   1.445   1.840   1.791   3.562   1.884  -2.012
    2.231  -0.748   4.126   0.180  -0.977  -1.059   2.305   1.267  -1.586   0.571
   -0.082   3.380   1.675  -0.521  -0.352  -2.089  -1.325   2.224   2.110  -4.258
   -0.464   0.038  -3.588  -2.258   2.256   0.951  -2.399   1.158  -1.152   1.275

    1.400  -0.635
    0.040  -1.782  -3.551  -0.444  -3.192  -4.133   4.562  -0.378   1.612  -0.155
    1.584   1.022   2.696   1.786   2.279  -0.357  -3.130  -0.155   0.760   2.000
    3.259   1.540   0.115   0.908  -0.014  -1.666  -1.277   0.289  -2.165   0.610
    3.252   0.277  -0.409   0.558   0.025   1.494   0.377  -2.708   0.003   1.089
   -0.126  -1.549  -0.255  -1.317   1.991  -0.217  -1.864  -2.225  -1.200  -0.490
   -0.039  -1.170   0.245   0.916  -0.648   0.519  -0.479  -2.230   3.182   3.517
   -1.309  -1.703  -0.323  -1.832   1.418   2.051   2.641   3.723   1.787  -2.128
    2.031  -0.574   3.604   0.792  -0.496  -0.526   2.585  -0.273  -2.075   0.082
   -1.566   3.833   2.295   0.889  -0.547  -3.225  -0.960   2.934   1.548  -4.652
    0.032   0.373  -1.173  -1.727   2.579   0.813  -2.179   0.101  -0.891   1.295

    1.450   0.255
    0.164  -1.331  -3.876  -0.224  -3.940  -4.522   4.583   0.194  -0.426  -0.229
    0.161   1.301   4.009   2.064   1.440  -0.906  -2.560  -0.902  -0.106   3.267
    2.588   2.040  -1.600   1.367  -1.163  -0.694   0.015   0.443  -1.736   1.706
    1.661   0.665  -2.678   0.642  -0.607   0.980  -0.766  -1.252  -0.325   1.035
    0.334  -0.670   0.778  -2.548   0.636  -0.916  -2.434  -0.777  -1.039   0.113
   -1.074  -0.611   0.195   1.069  -1.794   1.004  -0.382  -0.293   2.536   2.571
   -1.226  -1.054   1.142  -2.016   0.537   1.214   2.057   3.768   1.356  -0.671
    2.139  -0.827   4.022  -0.350   1.345  -1.543   2.259   0.566  -0.896  -0.175
   -1.585   2.956   2.185   0.211  -0.930  -3.242  -0.054   2.472   1.515  -4.937
   -0.359  -0.903   1.155  -1.681   2.150   0.708  -1.420  -0.286  -0.157   2.241

    1.500   0.486
   -1.922  -1.153  -3.556  -0.590  -2.802  -3.144   3.562  -0.742   0.912  -0.168
    0.502   2.222   2.581   2.007   1.556  -1.567  -2.475  -1.582  -1.175   2.338
    2.188   2.041  -1.199   1.662  -0.532   0.171   0.013   0.370  -2.628   1.755
    0.868   0.244  -2.105  -0.278  -1.341   1.469  -1.050  -0.752   0.693  -0.118
    2.162  -0.352   0.662  -0.741  -0.154  -1.290  -1.575  -0.510  -1.200  -0.161
   -0.858  -0.754   1.059  -0.615  -1.770   1.092  -0.636   1.003   2.017   2.973
   -0.556  -1.241   1.297  -3.419  -0.641   0.603   2.416   2.920   0.630  -0.904
    2.344  -1.846   3.994   0.111   1.212  -2.385   1.307  -0.095  -0.945   0.592
   -0.239   1.991   2.079   0.650  -1.255  -2.236   0.475   2.161   0.557  -3.300
   -0.925  -0.254  -0.210  -2.089   3.229   0.616  -1.071   0.822  -0.238   2.859

    1.550   1.209
   -0.404  -1.055  -1.767  -1.411  -2.454  -2.539   4.389  -0.557   1.280  -1.531
    1.394   0.578   2.150   1.815   3.269   0.274  -2.116  -1.054  -0.454   2.539
    2.346   0.518   0.354   1.574  -0.462   0.315  -0.286   0.052  -3.203   1.396
    0.794  -0.056  -0.985  -0.518  -1.435   0.784  -1.926  -0.611   0.833  -0.173
    0.908  -0.575   0.718  -1.058   0.270  -2.292  -2.045  -1.439  -1.744   1.032
   -0.629  -1.245   2.359  -0.973  -1.843   1.093  -2.431   0.781   1.614   2.894
   -0.439  -1.423   1.004  -3.934  -1.581   0.580   1.648   3.424  -0.060   0.669
    2.411  -1.704   2.758   1.529   1.165  -2.692   1.546  -0.033  -0.731   1.307
    0.350   2.019   0.950   0.077  -1.267  -0.842  -0.218   2.987  -0.641  -2.777
   -1.019   0.978  -0.423  -3.152   2.394   0.237  -1.450   0.591  -0.220   2.371

    1.600   1.356
   -0.532  -1.655  -2.469  -1.107  -0.506  -2.183   4.874   1.682   1.158  -2.145
    0.517  -1.492   2.197   2.181   2.488   0.239  -1.153  -1.192  -1.021   1.517
    0.801  -0.036   0.883   1.058  -0.806  -0.104   0.741  -0.371  -2.434   0.956
    0.387   0.907  -0.384   0.593  -1.803   2.082  -1.371  -0.206   0.305  -1.023
   -0.353  -0.711   0.588  -0.167  -0.520  -1.493  -2.905  -1.217  -1.408   1.458
   -0.477  -0.802   2.261  -0.592  -2.309   0.685  -2.854   2.077   2.905   3.050
   -0.733  -0.889   0.853  -4.402  -1.580   0.499   1.189   4.367   0.497   1.079
    3.184  -2.079   3.042   1.047   1.112  -1.855   0.787   0.354  -1.200   0.319
   -0.887   1.938   0.397  -1.351   0.024  -1.201  -1.018   3.282  -1.150  -2.632
   -0.509  -0.687  -0.577  -1.986   3.294   0.020  -0.026   0.063  -1.675   3.972

    1.650   2.156
    1.060  -2.843  -2.826  -0.679  -0.905  -0.984   3.736   2.170   0.937  -1.843
    0.460  -1.589   1.422   2.471   2.944  -1.136  -0.250  -0.617  -2.602   2.176
    0.630  -1.071   0.053   1.510  -0.877  -0.813   0.319  -0.703  -1.563   1.537
    1.287   0.916  -0.579   0.714  -1.448   1.962  -1.240  -1.090  -0.751  -0.050
   -1.130  -0.875  -0.479   0.434  -0.302  -1.537  -2.394  -1.876  -1.479   0.270
   -0.306  -0.133   1.345  -1.869  -1.435  -0.140  -1.994   1.354   2.765   2.159
   -0.877   0.089   0.161  -3.957  -1.240   1.100   1.273   5.103   0.810   1.602
    3.002  -2.316   3.694   3.529   2.637  -1.959   0.664  -0.030  -1.668  -0.614
   -1.234   1.376   1.730  -0.445  -0.027  -1.167  -1.012   3.581   0.491  -2.887
   -1.756  -0.325  -0.373  -2.347   2.988   0.559   0.156  -0.214  -1.171   3.608

    1.700   0.805
    2.442  -2.775  -2.208  -0.970  -0.528  -1.372   2.264   0.579   1.073  -1.162
    0.019  -0.850   0.598   2.368   2.655  -1.013  -1.459   0.743  -3.127   3.107
    0.905  -0.675  -1.009   1.332  -2.458  -1.159   0.556  -1.489  -1.400   2.274
    1.334  -0.402  -0.957   1.253  -0.962   1.351  -0.162  -1.062  -2.017  -0.749
   -0.340  -0.226  -0.985   0.570  -0.588  -0.284  -2.442  -1.811  -2.982  -2.108
   -0.900  -1.216   1.187  -3.008  -2.087  -0.503  -2.440   1.186   2.144   2.614
   -0.427   0.012   1.418  -2.528  -1.031   0.430   2.552   4.037   0.416   2.288
    0.888  -0.588   3.099   2.073   2.120  -1.208  -0.433  -0.312  -2.681  -1.042
   -0.179   2.326   1.841   0.035  -1.365  -0.126  -1.466   3.558   0.360  -2.941
   -2.024   0.077  -0.686  -3.324   2.226   1.641  -0.746  -0.113  -0.620   3.748

    1.750   0.027
    2.594  -2.116  -1.324  -0.547  -0.495  -0.655   2.926   1.994   1.404  -1.097