TurbSim.exe TurbA_200sec_3ms.inp
TurbSim.exe TurbA_200sec_5ms.inp
TurbSim.exe TurbA_200sec_7ms.inp
TurbSim.exe TurbA_200sec_9ms.inp
TurbSim.exe TurbA_200sec_11ms.inp
TurbSim.exe TurbA_200sec_13ms.inp
TurbSim.exe TurbA_200sec_15ms.inp
TurbSim.exe TurbA_200sec_17ms.inp
TurbSim.exe TurbA_200sec_19ms.inp
TurbSim.exe TurbA_200sec_21ms.inp
TurbSim.exe TurbA_200sec_23ms.inp
TurbSim.exe TurbA_200sec_25ms.inp
