
This full-field turbulence file was generated by TurbSim (v1.40, 12-Sep-2008) on 27-May-2021 at 14:31:09.

 | u-comp |  Y  x  Z  | Grid Resolution (Y x Z) | Time-step | Hub Elev | Mean U |
            10    10     15.556     15.556          0.050      89.60     50.00

 Z Coordinates (m):
  -70.000 -54.444 -38.889 -23.333  -7.778   7.778  23.333  38.889  54.444  70.000

 Y Coordinates (m):
  -70.000 -54.444 -38.889 -23.333  -7.778   7.778  23.333  38.889  54.444  70.000

    0.000  46.018
   46.662  39.688  42.920  41.829  44.571  45.235  41.837  34.983  42.015  44.329
   45.790  43.404  42.399  45.364  43.796  40.239  40.478  42.837  45.327  43.320
   47.957  45.958  46.464  42.792  46.455  39.733  38.038  41.122  41.110  44.794
   47.152  45.568  48.714  43.788  42.477  42.813  41.400  38.818  43.031  46.259
   45.745  42.324  39.029  36.334  46.633  45.713  41.083  39.214  38.558  40.864
   44.002  46.185  41.102  35.955  41.975  42.019  42.931  40.417  34.804  38.509
   42.943  41.458  39.354  45.090  43.418  43.082  44.790  45.128  39.798  44.129
   42.193  43.185  36.936  41.255  39.090  39.837  41.029  42.269  39.081  40.109
   42.321  40.620  36.766  43.272  32.363  40.336  40.298  39.538  43.240  45.384
   35.231  37.334  37.072  34.894  39.690  37.326  36.530  42.322  42.044  41.220

    0.050  46.456
   47.401  40.318  41.141  42.110  42.444  45.925  42.889  36.841  40.070  45.977
   48.289  43.061  41.876  44.108  43.594  40.779  39.820  43.044  46.364  45.003
   47.236  44.336  44.780  43.326  47.431  37.807  35.960  40.958  42.319  44.571
   46.144  46.742  48.490  42.535  44.079  44.319  41.043  40.775  44.220  49.011
   47.143  41.546  40.307  37.432  47.793  45.822  41.699  39.763  38.143  42.500
   44.437  47.886  40.848  36.696  41.395  42.326  40.994  40.854  37.432  37.255
   44.363  41.777  40.639  45.810  39.517  42.142  46.615  46.497  39.733  45.513
   39.788  44.379  32.977  39.779  40.207  41.382  41.438  42.456  37.408  39.745
   43.254  40.771  36.407  41.040  32.071  39.429  39.990  39.858  42.974  46.025
   36.144  38.606  35.595  34.433  38.274  34.023  36.204  41.905  42.641  42.665

    0.100  46.009
   49.169  41.840  41.857  42.333  42.983  44.780  43.185  37.261  39.668  47.670
   46.233  44.120  43.311  44.892  45.753  38.937  38.015  44.425  43.965  46.111
   46.692  44.348  44.762  45.975  48.345  36.725  35.077  38.646  41.751  44.609
   44.796  45.250  46.035  42.012  43.963  43.497  42.949  40.619  44.783  48.128
   45.810  43.304  41.297  38.287  48.931  46.657  42.006  39.501  37.485  42.912
   42.723  48.345  43.460  38.422  39.775  41.995  40.036  37.683  38.052  37.569
   44.163  42.128  39.344  44.117  40.269  40.707  45.677  44.531  39.748  43.541
   39.982  42.532  32.764  39.740  39.420  43.059  40.651  42.035  37.317  40.793
   44.403  39.190  34.901  39.607  32.516  40.543  42.351  37.980  42.118  46.749
   35.496  39.533  34.246  32.000  36.208  34.276  38.171  43.203  43.505  41.621

    0.150  45.351
   48.667  41.157  40.539  41.733  42.822  42.934  43.586  37.450  41.958  47.727
   46.866  44.334  43.780  44.657  43.334  37.950  37.405  46.030  44.368  48.063
   47.941  43.182  44.192  45.165  45.428  37.585  36.443  37.781  42.750  42.876
   45.608  45.560  47.617  43.596  42.753  41.197  44.517  43.082  44.946  49.006
   47.997  44.338  38.664  38.544  47.069  46.938  41.084  37.940  37.392  42.882
   43.792  46.998  42.603  40.795  40.606  41.715  41.063  38.010  38.419  38.724
   44.054  40.558  38.601  42.688  43.256  40.611  42.738  42.359  37.924  42.935
   40.114  41.369  34.372  39.718  39.140  46.180  41.656  41.269  37.265  41.124
   43.167  40.615  34.372  39.632  31.208  40.068  41.357  38.055  42.589  45.880
   36.085  40.497  34.032  31.616  35.332  34.510  38.088  44.256  41.715  41.468

    0.200  43.210
   48.212  41.499  42.106  41.177  42.467  42.719  40.541  35.132  42.161  45.520
   47.032  43.980  44.930  44.774  42.614  38.118  35.947  44.041  46.066  50.148
   47.082  43.602  46.226  46.449  45.837  38.417  36.407  39.440  40.195  44.969
   47.876  44.653  44.531  44.732  44.126  41.037  46.508  42.234  46.335  48.516
   47.923  45.886  38.756  39.501  48.136  45.417  43.087  39.192  36.972  44.844
   43.809  46.437  45.165  42.071  41.123  43.757  39.895  38.684  39.301  38.241
   44.078  39.676  39.053  41.618  42.043  41.388  43.808  44.723  38.766  43.701
   40.647  41.139  36.013  39.060  38.323  43.498  41.531  43.049  37.801  40.075
   41.161  42.700  33.413  39.336  30.969  38.579  38.900  39.806  40.313  45.081
   34.011  40.389  35.394  31.158  36.265  34.585  40.119  44.388  42.034  41.525

    0.250  42.151
   46.127  40.954  43.608  40.804  42.895  44.981  41.853  33.918  42.868  43.597
   46.669  48.177  43.945  45.244  45.493  40.143  34.269  42.113  47.478  50.531
   46.009  43.307  48.264  47.320  47.469  38.512  36.445  39.830  39.308  44.299
   48.392  45.193  45.305  43.928  43.609  41.139  45.808  42.108  49.363  47.658
   47.096  46.486  41.253  41.493  47.464  45.002  44.808  38.991  33.540  42.361
   44.589  45.767  44.145  43.461  42.703  44.031  38.374  38.617  40.153  37.962
   45.669  38.840  41.919  41.333  42.608  39.195  47.073  45.005  39.999  41.383
   41.084  41.033  37.275  37.517  40.978  41.952  41.804  44.710  39.359  39.962
   41.392  45.471  32.653  37.604  31.453  37.194  37.623  39.270  41.908  45.639
   34.098  41.094  35.958  32.175  37.455  34.563  40.609  44.398  42.198  38.829

    0.300  40.836
   45.096  40.601  45.583  40.812  42.663  44.372  42.143  37.384  42.893  44.546
   45.932  47.679  44.422  45.713  46.737  42.153  34.079  41.567  47.139  48.588
   45.369  44.794  47.035  45.972  47.556  37.941  34.442  40.643  41.027  43.951
   47.818  44.540  45.197  43.566  44.940  39.687  45.702  40.918  49.662  50.019
   46.840  45.161  40.337  42.957  44.956  43.007  42.398  39.485  34.708  40.056
   44.459  46.477  42.713  44.014  43.711  44.300  37.076  40.205  40.262  38.366
   48.617  37.846  40.408  42.003  43.189  39.204  45.063  43.737  41.389  40.114
   40.826  41.453  38.611  37.146  43.404  42.130  38.704  43.168  39.651  39.513
   40.657  44.851  34.770  38.843  33.257  36.953  38.036  40.275  39.139  47.631
   34.041  40.887  35.437  32.385  39.133  34.022  41.352  45.549  41.683  38.395

    0.350  39.857
   45.455  42.258  43.155  41.669  44.745  44.818  40.997  37.623  42.692  46.065
   43.166  47.220  42.785  47.954  46.188  45.333  32.205  39.754  47.179  48.565
   45.313  43.069  46.635  47.502  47.585  36.433  33.752  39.792  41.303  43.760
   48.668  45.378  44.693  44.576  42.888  38.602  44.716  42.213  52.210  51.157
   47.388  44.904  39.587  43.518  44.369  42.583  44.002  39.806  35.919  39.643
   43.273  47.534  41.353  46.043  43.878  42.295  37.711  42.595  42.603  38.417
   47.367  37.299  39.829  42.320  43.541  39.776  44.881  43.087  41.075  40.275
   40.638  43.380  39.045  38.304  41.045  41.083  38.377  44.814  40.021  40.131
   39.471  44.022  35.656  37.056  33.889  39.205  38.956  39.865  39.264  46.232
   33.034  40.059  33.856  34.218  39.102  33.216  40.337  45.803  40.692  38.168

    0.400  40.930
   46.990  41.465  43.386  41.164  45.070  43.993  40.885  34.824  42.291  46.191
   43.396  46.496  45.026  46.686  44.936  45.394  32.330  40.311  44.839  47.937
   45.674  43.957  44.777  48.598  47.106  37.600  34.672  39.823  43.018  44.097
   47.624  44.163  46.337  43.378  41.004  39.090  44.004  42.118  51.876  53.371
   46.280  44.504  40.733  42.144  45.378  43.787  42.819  39.039  37.801  38.966
   45.126  47.369  42.816  45.570  45.632  40.411  40.988  43.277  42.052  37.701
   48.007  38.067  42.669  41.126  42.825  40.460  44.670  42.533  40.462  40.003
   38.727  42.447  38.793  39.104  42.954  39.471  41.051  44.527  40.003  41.328
   37.563  43.531  35.905  35.929  32.811  41.342  40.814  38.438  41.097  44.954
   34.282  37.876  32.468  34.485  39.297  36.541  42.503  44.459  39.253  38.281

    0.450  39.666
   46.766  40.475  43.179  41.750  44.138  43.210  41.595  36.838  40.621  47.715
   42.150  46.206  47.863  46.976  46.222  41.872  33.195  40.350  44.084  49.205
   48.140  43.717  45.315  48.784  46.659  36.041  35.332  39.978  44.202  45.019
   46.984  44.232  45.060  43.914  40.169  41.702  43.516  39.885  48.656  52.273
   44.544  45.687  39.652  41.188  45.101  46.343  42.621  37.373  40.280  38.180
   43.047  47.728  44.241  43.635  46.568  40.496  42.432  43.122  40.401  37.796
   48.897  39.580  42.391  41.087  41.709  40.970  42.332  43.663  37.279  42.415
   39.584  43.681  39.499  41.855  45.310  42.265  42.358  43.456  40.568  40.287
   40.401  43.818  37.232  36.482  32.359  41.637  41.887  37.665  40.138  45.916
   33.589  39.388  33.291  34.799  39.358  37.071  42.440  44.019  37.699  38.552

    0.500  40.886
   47.121  41.724  43.158  40.729  42.900  45.616  40.538  36.449  43.016  48.223
   41.701  46.060  44.214  47.505  47.030  40.833  31.594  40.717  45.020  48.238
   49.264  42.749  45.117  50.182  47.701  36.394  37.324  41.606  42.524  45.145
   47.983  44.530  44.641  45.749  42.063  42.190  43.313  40.046  46.947  51.308
   45.490  44.458  40.383  42.915  46.826  45.569  42.493  39.297  38.113  38.184
   44.072  45.590  44.862  44.253  42.652  38.577  42.087  45.549  41.050  39.036
   45.883  40.021  42.094  43.734  43.043  42.583  41.598  43.511  39.866  42.327
   37.636  46.315  38.307  40.678  45.822  42.929  42.024  43.154  43.255  38.283
   40.870  44.598  35.355  36.074  32.531  40.272  44.100  38.753  40.928  46.825
   32.835  39.804  34.707  36.063  39.598  36.384  40.753  45.084  38.566  37.342

    0.550  39.619
   46.320  44.470  43.536  40.037  41.468  46.283  42.204  34.954  44.554  46.065
   43.144  46.161  44.165  48.888  46.382  39.796  31.663  39.949  46.470  48.511
   48.519  44.217  46.235  49.767  48.180  36.593  36.531  41.378  40.621  47.669
   45.557  43.520  44.008  44.386  43.296  42.713  42.271  41.352  47.927  52.593
   44.754  44.024  38.468  43.843  44.392  46.558  41.705  41.137  42.171  37.998
   44.579  44.216  43.071  43.151  41.923  37.861  41.187  47.160  41.458  38.702
   44.753  39.699  42.356  45.207  42.656  44.374  42.500  42.645  39.315  43.916
   36.335  47.223  37.437  42.836  44.306  41.120  40.341  41.687  40.731  37.539
   41.232  44.348  34.110  36.362  31.855  40.155  44.697  37.721  40.137  48.202
   34.413  39.330  32.787  35.904  41.089  35.279  40.944  47.178  39.398  38.072

    0.600  39.046
   46.452  44.249  43.745  40.093  41.485  44.426  45.038  35.962  44.585  44.373
   42.468  45.190  43.971  49.103  46.409  39.916  31.926  40.888  43.146  47.894
   47.055  45.784  46.955  47.695  47.452  36.835  36.019  41.371  41.571  45.554
   47.195  41.142  44.330  44.510  42.618  43.200  42.924  41.022  48.919  50.290
   45.331  45.023  37.922  43.208  44.587  45.440  39.959  42.308  43.923  39.503
   43.893  44.926  42.577  43.807  42.031  35.146  41.122  48.752  40.636  40.168
   44.846  39.551  41.348  44.788  41.033  44.890  43.168  42.015  40.083  43.684
   37.421  45.936  39.112  42.516  44.135  40.695  42.386  40.678  38.352  39.805
   40.323  42.554  32.620  36.762  32.628  39.877  44.671  41.098  42.771  46.832
   32.528  39.174  33.752  36.040  41.908  34.757  41.120  48.186  39.045  39.561

    0.650  38.204
   46.824  43.603  44.664  41.723  41.877  47.266  47.703  37.207  44.871  43.958
   42.441  45.289  43.527  47.857  43.680  39.260  33.262  41.987  44.359  45.525
   46.045  45.037  47.649  46.215  46.580  37.272  34.926  40.131  41.298  45.101
   49.291  40.416  44.898  45.887  43.313  44.747  41.530  42.483  47.242  49.950
   44.676  44.912  41.143  43.699  44.350  43.728  39.310  42.664  41.778  39.197
   44.551  44.962  44.280  45.176  42.593  35.561  42.227  50.237  39.699  41.829
   45.601  40.791  42.289  44.133  41.274  42.527  44.139  38.991  39.896  42.511
   40.058  46.221  39.481  40.735  42.171  39.785  41.710  42.625  38.567  41.150
   38.476  40.045  35.812  38.813  33.869  40.221  43.456  42.637  43.300  48.881
   35.159  41.673  33.876  35.492  41.812  35.131  40.500  46.369  38.980  39.627

    0.700  39.791
   47.373  42.651  44.971  40.902  43.118  47.762  47.141  38.774  44.907  43.637
   43.670  47.823  43.911  48.788  43.514  40.442  32.751  43.360  43.272  44.966
   45.882  45.706  47.092  44.809  46.111  37.163  35.188  40.707  43.140  46.673
   49.565  39.825  42.487  43.437  40.392  45.218  40.544  43.724  47.269  51.028
   44.138  45.377  39.721  43.106  43.471  42.349  39.772  41.832  42.083  41.501
   43.641  46.896  43.713  41.496  43.003  35.594  41.774  48.125  38.698  41.790
   45.355  42.817  43.904  44.325  41.393  43.257  43.775  38.636  39.739  42.876
   40.944  47.030  40.038  41.731  41.572  40.356  41.124  41.459  39.165  40.892
   36.794  40.889  37.118  39.612  33.095  40.347  42.538  41.898  43.383  47.476
   37.813  42.123  36.471  36.148  41.870  33.796  37.234  44.760  42.805  39.381

    0.750  43.078
   47.306  40.736  45.601  37.925  43.474  47.714  45.737  39.335  43.115  44.963
   41.769  49.100  46.516  47.879  45.635  41.006  32.182  43.118  43.086  47.158
   45.451  45.263  46.261  46.801  43.752  38.047  35.479  40.745  44.801  46.541
   47.060  41.694  40.398  42.718  41.403  42.038  39.071  41.398  48.248  50.586
   46.349  45.228  39.963  41.891  43.677  42.804  41.915  42.446  42.532  43.272
   43.813  48.678  44.064  42.858  42.669  36.948  42.125  45.841  41.066  41.926
   46.482  41.613  44.301  44.610  40.957  44.970  44.281  39.022  41.816  44.011
   41.316  43.995  38.570  42.072  40.544  41.310  40.838  39.803  40.952  39.902
   34.297  41.112  36.223  40.160  34.834  40.460  42.868  41.208  41.552  48.903
   37.715  42.411  36.470  35.527  40.556  34.043  37.857  41.142  42.742  40.487

    0.800  39.865
   48.700  41.416  45.367  37.713  42.689  43.912  45.162  40.933  41.553  44.119
   39.974  50.694  47.294  46.259  46.539  41.811  31.832  40.151  42.569  48.685
   46.582  43.830  47.161  46.653  44.237  35.778  36.321  38.954  41.909  47.286
   48.983  39.701  42.187  41.299  42.364  41.807  38.651  40.481  47.230  47.729
   46.560  45.808  39.065  40.771  43.568  42.992  42.306  42.715  43.313  44.379
   44.111  49.547  43.579  42.568  42.869  37.704  40.124  44.827  41.703  41.229
   45.586  40.362  44.555  48.037  37.997  43.329  42.255  41.283  39.161  44.698
   40.671  44.613  39.995  45.048  40.042  42.013  40.655  40.204  40.851  39.257
   39.430  41.951  34.649  39.697  34.658  40.324  42.208  41.473  42.496  47.880
   37.675  43.584  36.079  34.579  39.470  33.592  37.774  39.708  41.539  42.495

    0.850  40.235
   47.229  39.662  47.042  36.740  43.041  43.378  45.717  42.525  43.271  45.414
   42.235  50.520  48.939  45.157  45.477  41.030  31.666  41.623  44.342  49.170
   44.696  44.609  47.392  46.653  45.041  36.374  35.757  38.759  42.734  46.441
   49.398  38.506  41.853  40.458  44.308  44.049  36.700  42.715  46.594  46.107
   45.268  46.583  42.005  39.938  41.438  44.196  40.854  43.013  45.231  45.369
   43.322  48.982  43.011  42.515  42.118  39.054  39.131  44.385  42.825  41.121
   47.508  43.077  46.424  46.134  39.137  42.685  41.121  41.044  38.287  44.595
   41.629  46.400  40.239  45.600  40.367  40.116  41.170  41.064  43.280  39.257
   40.352  42.045  36.526  38.973  32.960  40.299  42.719  39.278  43.694  46.116
   36.858  43.480  34.329  35.372  39.405  37.701  35.398  39.215  40.299  42.165

    0.900  41.373
   46.927  38.796  47.030  36.845  42.955  43.923  44.694  41.693  44.803  46.014
   44.100  49.894  47.544  45.406  45.678  41.318  33.482  41.392  42.952  49.664
   46.025  44.141  46.480  46.579  44.150  39.248  36.058  38.062  42.688  44.638
   52.298  39.383  43.551  41.766  41.453  41.066  37.680  42.115  43.454  47.292
   43.715  46.247  41.234  41.733  40.398  44.246  41.045  43.675  42.758  44.844
   44.935  48.855  44.243  44.276  45.377  41.753  40.593  42.144  41.274  41.823
   47.235  43.471  43.948  45.185  39.059  42.202  39.050  41.437  37.193  43.541
   41.212  45.619  41.025  46.676  40.369  42.187  44.419  38.828  42.848  40.100
   38.102  42.460  36.136  37.636  32.776  38.186  41.206  37.868  41.395  47.535
   36.228  43.242  33.761  35.451  40.734  39.826  34.646  40.204  38.444  41.877

    0.950  40.799
   47.566  38.602  46.767  39.087  45.719  44.709  46.332  39.468  45.170  47.639
   44.720  49.767  44.890  43.655  45.216  39.361  34.974  39.620  45.255  49.587
   46.410  41.913  45.479  44.793  46.398  40.486  37.166  38.533  43.778  45.294
   52.585  40.749  44.506  43.281  42.535  41.436  38.260  40.592  45.388  47.456
   45.430  45.172  41.225  42.906  40.808  42.513  40.694  41.604  43.115  44.725
   45.254  48.881  45.886  43.743  45.127  39.988  43.022  43.971  40.123  42.898
   45.582  44.224  44.526  46.506  39.839  43.190  38.089  41.286  37.735  41.514
   41.264  47.203  39.668  46.083  40.485  41.571  43.535  38.832  41.282  39.033
   39.947  43.368  34.347  37.771  34.033  40.874  42.919  38.626  41.275  45.992
   35.197  43.722  34.068  34.851  40.653  40.854  34.532  41.745  37.157  42.469

    1.000  40.134
   44.525  37.386  46.165  40.260  45.406  43.999  46.353  39.249  44.625  46.963
   45.335  49.361  46.718  44.608  43.983  40.589  32.202  40.141  46.709  50.496
   44.326  42.581  45.371  44.424  46.479  39.683  37.948  40.013  43.903  46.579
   52.818  40.468  42.766  44.850  44.354  41.709  40.639  41.222  45.299  46.321
   47.332  45.259  42.207  41.267  39.495  46.202  39.602  41.233  45.061  45.269
   45.598  49.194  46.214  43.575  42.965  41.910  45.520  44.176  39.239  41.514
   45.373  45.404  45.547  46.020  38.992  43.005  39.429  43.195  38.094  42.317
   41.234  48.063  41.167  47.465  43.807  39.048  43.371  40.107  40.808  38.059
   39.580  43.366  35.270  37.083  33.943  41.287  41.593  40.098  40.924  46.587
   35.220  41.739  37.001  34.776  41.992  42.939  36.745  42.004  36.196  42.466

    1.050  38.429
   44.806  39.268  45.597  38.687  47.023  44.038  44.920  40.395  45.716  45.203
   46.254  47.546  45.862  44.180  43.645  42.932  30.950  39.924  46.126  51.608
   43.590  41.181  45.047  44.390  44.074  41.420  38.383  40.716  44.354  46.338
   53.486  41.312  44.192  44.589  44.580  41.395  42.049  43.401  45.339  48.120
   47.631  45.826  41.155  41.426  38.479  45.882  39.865  43.413  44.812  43.708
   48.565  49.468  46.550  44.618  42.134  42.387  46.902  43.142  38.260  40.960
   46.365  46.773  45.004  45.952  38.891  43.075  40.641  43.169  38.692  43.082
   41.890  47.129  41.222  48.771  43.602  39.411  42.505  39.608  41.303  41.741
   37.229  42.435  36.177  37.823  34.591  40.661  40.473  39.248  40.962  46.990
   35.546  43.557  36.407  35.330  40.956  40.913  36.698  43.154  37.889  41.522

    1.100  36.561
   43.849  41.399  47.343  37.154  46.307  43.097  46.098  39.914  47.896  44.332
   46.842  47.588  46.065  42.566  43.134  43.986  33.957  39.458  47.921  51.225
   45.171  40.558  46.285  44.382  44.798  43.532  36.939  42.123  46.329  45.534
   53.079  43.204  45.119  44.112  43.106  41.410  39.940  44.831  44.872  49.414
   47.060  45.107  42.670  41.921  38.853  43.592  41.072  44.068  42.884  43.863
   48.940  49.524  46.958  44.567  41.024  41.349  45.374  42.203  41.188  40.218
   48.155  46.803  48.143  42.203  42.421  43.375  40.038  43.247  37.952  44.763
   41.048  46.685  41.259  48.026  43.331  41.176  43.181  38.736  41.442  40.417
   36.775  42.793  37.015  38.126  38.304  38.899  40.087  40.453  42.598  46.709
   33.257  42.317  38.232  35.067  41.243  39.246  37.657  43.267  39.399  42.028

    1.150  39.731
   44.301  38.923  48.583  37.021  45.303  39.449  45.617  40.791  47.003  44.186
   46.728  48.559  45.247  42.993  43.133  42.911  34.754  39.182  48.150  49.474
   46.050  40.711  46.820  45.704  44.633  46.794  37.282  42.610  45.902  47.342
   50.225  43.463  45.542  44.811  42.873  40.156  40.185  44.884  46.553  47.772
   46.166  44.027  42.146  41.312  40.199  45.876  40.615  45.159  42.249  42.486
   48.673  51.382  48.734  44.062  41.385  40.944  45.724  43.953  43.610  40.138
   48.615  46.337  46.647  42.584  40.037  45.448  39.959  43.951  38.547  44.308
   41.814  48.358  40.991  47.081  44.857  41.644  42.895  40.272  40.419  40.403
   39.449  43.087  37.824  37.980  38.138  38.182  41.910  41.508  40.212  46.644
   33.207  42.550  38.571  35.878  40.476  37.267  37.036  43.712  42.133  41.796

    1.200  39.755
   46.513  39.789  46.603  35.975  41.229  40.702  46.992  40.829  44.005  42.409
   47.019  46.435  47.737  42.323  40.335  41.974  35.465  39.957  46.658  49.598
   45.592  39.115  46.827  47.792  44.294  49.511  38.347  43.391  47.034  46.707
   51.185  44.834  48.250  45.241  43.984  41.517  40.652  44.480  47.731  47.961
   44.908  42.481  42.906  41.661  39.718  47.578  41.668  44.053  43.510  42.542
   46.666  50.563  46.358  41.711  40.406  40.475  45.885  42.053  42.207  39.155
   48.507  46.728  47.612  42.407  41.400  46.067  41.691  43.980  37.997  44.248
   41.975  46.710  39.703  45.387  42.616  43.566  42.894  40.683  40.033  38.071
   40.757  41.555  39.254  38.252  37.853  36.908  42.031  41.900  40.285  46.282
   33.850  41.926  39.389  38.024  37.962  38.302  38.684  44.661  40.793  39.654

    1.250  40.360
   47.462  41.761  46.030  36.711  42.689  40.583  46.450  41.423  44.849  42.364
   46.197  47.020  49.434  41.521  40.947  43.621  35.784  39.320  47.184  49.874
   44.846  42.052  46.965  49.031  44.743  48.340  41.196  42.781  46.901  47.234
   52.475  46.005  48.091  46.103  45.508  42.771  43.171  44.321  46.670  48.534
   44.984  41.985  42.728  41.757  41.150  48.734  42.853  43.593  43.741  45.675
   47.138  47.764  42.912  40.980  41.112  39.500  46.626  40.643  42.065  40.389
   46.607  45.101  45.938  42.255  41.305  45.976  41.984  43.994  39.391  42.907
   40.499  46.857  39.270  44.044  42.282  44.118  44.746  40.305  39.343  38.030
   41.457  40.160  38.966  38.467  37.544  36.465  41.678  43.989  39.805  47.321
   32.911  44.502  40.408  38.419  38.299  39.191  41.362  41.791  42.915  38.152

    1.300  40.705
   47.023  43.075  47.367  35.385  40.639  42.261  45.465  40.494  46.283  43.812
   47.496  47.328  50.634  44.757  38.813  43.026  34.418  38.990  48.670  50.657
   47.134  44.216  47.109  48.153  45.408  47.380  42.065  39.775  46.534  46.679
   52.618  43.200  49.091  47.103  45.354  42.328  44.457  43.316  45.454  46.474
   45.316  43.072  42.453  43.651  40.256  48.638  42.561  44.461  41.664  46.248
   47.927  47.794  43.087  44.171  41.224  39.973  47.807  41.238  41.777  40.052
   47.159  44.870  44.944  42.363  40.513  44.555  42.939  44.334  41.279  43.239
   41.407  47.044  37.985  43.283  43.301  45.523  45.089  41.712  38.207  38.085
   40.942  40.522  37.796  40.137  36.393  34.590  42.666  44.586  42.193  45.652
   30.938  43.506  39.157  38.692  37.748  38.789  42.748  41.866  44.867  40.340

    1.350  41.315
   47.706  42.584  46.568  38.610  40.088  41.415  48.207  40.261  47.480  44.692
   47.866  46.831  53.166  46.701  40.474  41.557  35.324  41.773  47.542  51.866
   46.321  44.155  47.509  46.696  45.301  48.555  42.424  41.362  46.919  45.908
   50.108  42.415  51.282  49.309  45.597  41.889  43.998  43.695  48.336  46.661
   43.972  42.968  43.718  43.447  43.100  47.253  42.149  44.883  42.511  46.506
   47.391  46.456  42.853  44.221  44.631  39.347  45.369  40.192  43.393  41.114
   46.686  45.855  46.129  42.671  40.228  44.503  41.821  42.150  40.692  41.939
   41.620  46.892  39.574  42.763  43.793  46.131  46.273  41.595  39.432  39.651
   41.047  44.000  38.265  41.375  38.199  36.285  42.610  44.200  42.342  45.647
   33.245  45.191  36.434  38.016  38.234  37.569  40.588  44.516  44.849  41.115

    1.400  41.413
   50.018  40.803  45.933  38.236  37.880  43.869  45.871  42.234  45.333  43.205
   49.587  46.213  51.035  45.565  41.134  41.319  36.475  40.332  47.509  53.225
   45.405  45.527  48.174  48.057  46.017  49.211  42.903  43.021  45.158  46.145
   48.610  41.282  49.425  51.480  46.185  42.976  45.448  45.400  49.148  47.727
   43.676  44.266  43.630  42.706  43.974  48.394  44.724  46.077  42.744  45.298
   48.164  48.961  45.469  42.424  45.315  41.241  45.361  41.498  42.888  40.548
   46.864  46.560  48.647  41.992  41.634  44.454  41.757  42.643  41.790  42.007
   42.059  48.183  40.445  41.686  45.013  44.975  46.607  41.904  38.003  41.014
   40.375  43.919  41.178  41.670  38.088  37.076  40.545  44.519  40.019  45.320
   33.528  43.625  37.286  38.003  37.930  40.418  39.410  42.340  43.842  41.945

    1.450  40.951
   50.162  38.603  46.536  38.012  38.042  43.935  44.616  44.476  45.534  42.200
   49.616  48.008  50.548  45.351  41.415  38.553  37.041  40.150  49.890  51.766
   45.859  47.072  48.828  46.245  45.252  47.391  43.815  43.644  42.000  46.637
   49.422  41.083  47.241  51.045  47.366  42.529  48.327  45.007  51.785  48.059
   42.862  44.307  43.877  42.946  42.932  48.392  43.663  45.838  42.441  44.392
   48.693  49.455  48.160  41.096  45.873  41.160  44.012  43.020  41.898  41.870
   46.427  46.600  47.067  45.072  39.387  42.487  43.294  41.709  43.430  43.470
   41.058  47.134  38.985  41.550  44.722  45.209  45.944  41.536  37.813  41.710
   40.458  44.404  39.314  39.673  38.388  39.154  40.202  45.183  38.621  44.518
   33.132  42.488  38.297  35.636  37.715  41.014  39.337  42.237  43.508  42.610

    1.500  40.271
   46.438  39.484  46.923  37.779  36.934  44.443  45.661  45.568  46.628  43.442
   48.508  48.561  50.641  46.958  41.246  38.717  35.906  42.281  47.603  53.472
   44.568  47.071  50.347  45.319  43.778  48.066  42.009  44.911  44.607  46.678
   51.356  42.237  45.488  50.630  46.087  44.864  47.099  43.653  51.580  47.430
   43.736  44.813  44.207  43.298  41.766  47.438  43.610  41.994  43.235  43.246
   48.425  48.034  47.674  43.198  45.012  41.658  43.641  43.569  43.736  41.311
   45.614  45.406  44.465  44.191  40.007  43.991  44.420  42.672  45.949  42.960
   41.911  46.755  38.816  40.285  44.304  44.146  43.583  41.564  40.936  39.909
   38.969  44.069  38.746  39.951  38.614  39.689  39.693  45.557  36.337  45.302
   33.400  41.048  40.064  36.261  39.214  38.401  41.394  42.400  43.582  41.913

    1.550  42.252
   47.972  40.989  46.742  38.004  37.420  44.976  46.956  45.365  45.995  44.861
   48.393  48.571  49.261  45.417  43.239  39.406  35.767  43.840  46.186  53.009
   44.869  51.370  50.729  47.686  43.658  46.906  39.453  47.184  44.975  46.645
   51.817  44.116  44.542  51.016  46.776  45.454  47.205  41.197  52.274  49.543
   44.047  45.724  44.870  45.321  41.828  47.686  44.734  43.850  44.919  43.887
   48.787  46.898  48.464  43.008  47.031  42.058  42.841  43.345  42.403  42.647
   45.931  47.004  43.261  43.472  40.676  44.602  44.032  40.857  44.051  43.362
   43.782  49.026  39.952  41.440  43.437  44.247  41.205  45.547  39.499  42.986
   37.486  43.910  39.678  36.591  35.942  38.374  40.575  43.718  38.439  45.709
   35.595  40.438  41.304  36.066  40.162  39.451  41.121  41.572  42.757  42.244

    1.600  43.150
   47.763  41.563  44.965  36.719  37.605  44.930  46.948  43.351  46.237  46.231
   48.531  50.957  50.793  44.810  42.561  40.763  34.129  44.170  47.892  50.713
   46.180  52.912  49.944  47.760  46.153  48.166  40.516  48.555  45.767  47.188
   50.037  48.013  45.261  48.207  46.959  44.750  48.258  41.789  51.952  50.167
   43.560  47.697  46.421  46.059  43.706  45.502  47.467  44.045  41.756  44.124
   48.237  45.149  46.014  42.644  47.685  40.928  42.746  43.909  40.877  44.619
   43.923  46.409  44.560  44.294  39.867  43.506  48.512  40.558  43.618  42.296
   42.495  47.737  38.409  42.569  42.393  45.093  42.716  46.199  40.571  44.235
   36.663  41.514  42.626  35.554  36.390  40.123  41.170  45.587  41.368  45.735
   34.960  41.121  37.421  38.415  40.794  37.894  41.784  41.469  41.777  43.201

    1.650  42.125
   48.733  43.640  44.400  36.684  37.677  47.415  48.212  44.429  47.684  44.870
   47.991  48.494  51.236  45.451  44.017  42.834  38.077  46.202  47.214  52.375
   47.114  50.163  48.227  47.885  46.276  48.137  41.065  47.831  43.619  44.551
   48.986  46.531  44.875  46.546  47.861  44.261  48.433  41.678  50.566  49.422
   44.628  47.636  46.894  45.722  46.890  44.568  47.463  45.304  41.608  43.032
   49.616  45.249  48.537  42.551  47.953  39.539  43.155  43.341  39.777  44.083
   43.589  45.792  43.784  44.446  40.486  43.746  50.078  42.388  41.962  43.453
   44.673  45.507  38.911  42.990  42.479  44.348  43.313  45.469  42.144  43.672
   36.838  41.440  42.552  37.153  36.798  38.099  41.676  45.962  41.820  44.791
   35.012  40.492  35.883  36.498  41.232  39.948  42.509  40.532  41.647  42.814

    1.700  43.390
   50.027  43.309  44.014  37.836  37.530  47.406  48.455  43.411  47.975  47.009
   46.196  49.711  49.081  46.305  42.865  42.494  39.282  46.991  48.341  51.385
   45.963  49.553  47.524  46.214  46.980  48.454  42.678  48.522  42.213  46.751
   46.572  47.018  47.323  47.321  48.294  42.672  48.639  40.055  48.800  51.873
   42.440  47.620  47.380  46.200  46.471  43.309  48.536  43.774  42.370  43.752
   50.829  44.468  49.789  46.041  47.450  39.384  43.701  42.774  40.430  44.486
   44.457  46.663  44.421  44.863  41.646  44.929  48.172  43.681  40.983  42.558
   45.131  44.105  36.665  42.697  40.967  41.067  41.821  46.083  41.304  43.700
   36.381  41.619  44.555  39.148  37.817  37.795  39.707  46.927  42.691  43.971
   34.403  40.981  36.473  34.232  41.133  40.473  42.725  41.563  42.323  42.191

    1.750  47.370
   50.253  44.593  42.136  37.359  38.470  47.484  48.125  42.455  48.176  46.259