
This full-field turbulence file was generated by TurbSim (v1.40, 12-Sep-2008) on 27-May-2021 at 12:57:05.

 | u-comp |  Y  x  Z  | Grid Resolution (Y x Z) | Time-step | Hub Elev | Mean U |
            10    10     15.556     15.556          0.050      80.00     21.00

 Z Coordinates (m):
  -70.000 -54.444 -38.889 -23.333  -7.778   7.778  23.333  38.889  54.444  70.000

 Y Coordinates (m):
  -70.000 -54.444 -38.889 -23.333  -7.778   7.778  23.333  38.889  54.444  70.000

    0.000  16.959
   24.056  25.248  23.595  22.941  18.733  15.167  17.515  16.462  22.141  21.922
   21.668  22.422  20.403  18.232  18.047  17.011  16.262  16.372  17.968  18.960
   23.974  21.717  20.641  17.172  18.555  18.938  15.658  15.863  15.915  16.190
   22.493  21.483  19.029  19.112  15.403  17.862  16.010  16.186  17.541  19.906
   17.365  20.097  15.916  16.281  16.215  15.499  16.667  19.608  15.552  20.274
   16.106  19.017  16.871  17.065  15.310  15.810  12.257  13.158  14.150  18.599
   14.690  16.739  16.177  14.213  19.362  13.101  15.231  13.994  17.457  17.240
   15.200  11.698  15.374  17.948  11.906  10.137   9.236  13.305  15.009  16.849
   14.671  12.633  13.122  15.931  10.289   7.120   7.228  13.333  12.511  13.498
    9.724   8.346  10.514   9.655   8.991   8.266   2.763   7.986   8.960  10.133

    0.050  16.156
   23.500  24.917  22.661  23.115  19.205  15.906  16.506  17.204  22.314  21.440
   21.877  21.839  20.450  18.161  17.674  17.333  16.398  17.334  18.416  19.599
   22.902  21.704  20.406  16.687  18.067  18.403  15.825  16.118  15.778  17.437
   22.454  21.844  19.303  19.365  16.516  17.601  16.585  16.778  18.009  20.041
   17.121  20.673  15.891  16.536  16.501  15.930  16.996  19.382  16.106  19.927
   16.565  19.191  17.457  16.636  15.328  14.589  12.488  14.249  13.588  19.268
   15.466  16.821  15.960  13.791  19.131  13.741  15.468  13.974  17.297  16.803
   14.488  12.469  14.776  17.891  12.787  10.502   9.743  13.499  15.577  17.307
   15.116  12.609  12.911  15.459   9.604   6.551   6.821  13.315  12.534  13.267
   10.046   8.946  10.064   9.497   8.588   7.028   2.517   7.477   8.723  10.696

    0.100  16.143
   23.529  24.572  23.069  22.637  19.512  16.022  16.291  17.843  22.250  21.376
   22.226  21.994  20.220  17.813  17.464  17.832  15.858  18.250  18.511  19.915
   23.565  21.205  19.778  17.680  19.125  18.749  16.006  16.888  15.154  18.324
   22.615  21.008  18.399  20.262  16.422  17.249  16.174  16.433  18.996  20.106
   17.649  21.290  16.431  17.477  16.438  15.781  17.367  19.420  16.333  19.403
   15.760  19.505  18.205  16.299  15.181  14.444  11.335  14.589  13.612  18.636
   15.440  16.065  15.404  15.026  19.079  12.286  14.415  13.780  16.090  16.694
   14.505  13.786  13.974  17.295  12.001  11.046   9.993  14.028  14.989  16.856
   14.893  12.482  13.400  15.259  10.972   6.141   6.788  13.651  12.067  13.819
    9.827   9.191   9.325   8.461   7.703   6.594   2.941   7.629   9.404  10.847

    0.150  14.924
   23.618  23.802  22.892  21.989  19.430  15.973  17.147  18.037  22.082  20.317
   21.401  21.921  20.028  18.623  17.792  16.375  16.760  18.807  17.875  19.618
   23.280  21.145  20.485  17.390  18.784  18.238  16.904  17.364  15.684  18.653
   22.079  20.221  18.303  20.373  17.304  17.572  15.178  16.975  18.766  19.583
   18.280  20.542  15.893  16.911  17.532  15.605  16.718  19.266  16.029  18.543
   15.197  19.361  18.689  16.880  15.311  14.690  11.991  14.705  14.141  19.512
   16.268  16.700  16.146  14.428  19.196  12.915  15.468  14.221  16.239  17.146
   14.539  12.484  13.789  17.103  11.803  10.345   9.587  13.585  14.490  16.799
   16.244  11.074  12.985  14.097  11.013   6.322   7.088  13.328  11.661  13.675
   10.031   9.800   9.131   8.081   6.875   7.054   3.098   7.848   9.136  10.460

    0.200  14.667
   24.232  23.566  23.087  22.729  18.542  14.977  17.197  17.044  21.415  20.253
   20.687  22.423  20.343  18.214  18.622  16.141  16.216  17.964  17.707  19.604
   23.779  22.069  21.067  18.020  18.681  17.383  17.340  16.722  16.062  18.103
   22.331  21.510  17.892  19.797  17.249  16.953  15.722  17.470  17.508  19.021
   18.730  19.637  16.044  16.891  17.088  14.546  16.472  19.858  15.443  17.889
   15.293  19.351  18.140  17.254  15.941  14.243  12.580  15.188  13.839  19.749
   16.534  15.662  16.542  14.323  18.715  12.431  14.957  14.775  15.680  17.284
   14.739  13.519  13.541  17.089  11.756   9.780   9.179  13.093  14.419  15.978
   15.893  11.316  13.280  14.719  11.291   6.348   7.933  12.301  12.181  14.386
    9.241   9.605   9.480   7.557   6.655   6.684   2.686   8.256   8.562  10.744

    0.250  15.547
   24.023  23.371  23.193  23.293  19.541  14.925  17.301  16.123  20.760  19.866
   20.094  22.645  18.869  16.970  19.150  16.799  15.774  17.407  18.292  19.407
   23.139  22.453  22.313  18.631  18.013  17.684  16.512  16.236  17.119  18.393
   22.191  21.560  18.038  20.153  16.336  16.628  14.998  17.570  17.457  19.482
   19.643  20.673  15.880  17.687  17.501  15.265  16.463  21.145  16.528  18.104
   15.917  18.573  17.355  17.464  15.290  14.036  13.063  15.442  13.728  19.358
   16.277  16.329  15.719  14.322  18.658  11.885  14.814  14.044  16.573  17.117
   15.228  13.517  13.659  17.675  10.474   8.574   9.721  14.173  14.461  16.428
   15.496  10.053  14.121  14.704  11.619   6.547   8.059  12.279  12.975  14.533
    9.083  10.100  10.026   7.518   6.438   7.073   3.561   8.079   8.330  11.828

    0.300  14.366
   22.766  23.597  23.445  22.850  19.511  16.594  17.272  16.092  20.458  20.233
   19.332  23.570  19.878  16.593  18.894  17.050  16.183  17.954  19.205  19.629
   23.278  22.257  21.996  19.199  18.275  17.733  17.013  15.416  16.680  18.983
   22.042  20.619  18.472  20.280  16.539  17.123  15.124  16.294  18.307  19.352
   19.237  21.121  16.660  17.825  17.507  16.312  16.649  20.515  17.346  18.027
   16.093  19.552  16.368  16.940  14.856  14.665  14.213  15.577  13.793  19.274
   15.777  16.296  15.107  14.362  17.533  13.119  15.167  14.034  17.213  17.278
   14.634  12.637  13.615  16.569  11.164   8.902   9.646  15.185  14.949  16.889
   15.570  10.053  13.889  15.189  11.823   6.046   8.419  12.440  12.463  15.344
    9.244   9.985  10.229   7.333   6.833   6.900   3.196   7.902   8.446  11.581

    0.350  15.694
   22.990  23.151  23.403  22.909  19.298  16.200  16.963  16.893  19.508  20.034
   19.154  24.512  19.578  18.057  17.921  17.013  17.222  17.912  18.736  18.844
   24.444  21.710  22.169  19.441  19.189  17.984  16.871  15.446  16.822  17.771
   22.320  20.775  19.093  20.370  15.730  16.832  14.960  16.540  17.953  19.496
   19.237  20.709  17.063  17.028  17.266  15.288  16.054  20.291  17.311  18.548
   16.206  20.285  15.116  16.637  14.025  16.053  15.051  16.328  13.888  19.452
   16.270  16.685  14.453  14.662  17.464  13.103  14.707  14.441  17.270  17.237
   14.946  12.444  13.028  16.368  12.100   8.820  10.309  15.600  15.486  16.196
   15.023  10.412  13.771  14.267  11.741   7.364   8.478  12.528  10.930  16.200
    8.667  10.108   9.952   7.274   7.105   6.884   4.223   7.886   8.331  11.756

    0.400  16.420
   23.173  23.143  22.342  22.541  19.923  15.431  16.804  16.814  19.831  20.280
   19.934  24.447  19.719  18.066  17.055  16.824  17.698  17.509  18.279  19.019
   24.494  21.927  21.861  18.962  18.999  18.228  16.624  15.090  17.052  17.366
   21.862  21.483  18.763  19.269  15.419  16.964  14.390  15.873  18.106  19.581
   18.885  20.726  17.865  16.464  16.466  15.701  16.470  20.334  17.366  17.695
   16.835  20.071  14.301  16.076  15.019  16.930  14.876  15.744  13.500  19.484
   15.963  16.536  14.126  13.964  17.757  13.261  14.206  14.521  17.183  16.829
   16.099  12.875  14.062  16.921  12.555   7.775  10.903  15.487  15.392  16.029
   15.937  10.470  13.376  13.824  11.440   6.772   8.807  12.889  10.706  16.625
    9.178   8.868   9.311   7.796   7.340   5.187   3.047   8.491   8.448  11.628

    0.450  16.147
   22.954  22.882  22.353  23.119  20.131  16.661  15.987  17.414  19.542  19.722
   19.086  24.465  20.209  16.663  16.996  17.477  17.154  17.525  18.265  19.037
   24.624  22.060  21.582  18.909  19.706  18.084  17.276  14.529  16.621  16.789
   21.586  21.326  18.135  19.269  14.962  16.823  16.134  16.245  17.122  20.448
   19.192  21.261  17.638  16.410  15.253  15.822  16.806  19.945  17.204  17.459
   17.651  19.581  15.009  14.955  15.069  16.066  15.035  15.029  13.556  18.457
   14.635  15.979  14.600  14.403  17.908  12.505  14.391  13.275  17.984  16.772
   15.996  13.260  14.443  17.678  13.286   8.184  10.986  15.375  16.322  16.759
   16.868  10.749  14.227  14.101  11.133   7.861   8.746  12.607  11.513  16.685
    9.086   8.887   8.468   7.633   7.148   5.428   2.969   9.303   8.912  11.665

    0.500  15.962
   22.829  23.152  22.503  23.140  20.412  16.312  17.016  17.901  19.402  19.395
   20.192  24.031  20.372  17.400  16.637  17.632  17.774  17.630  18.061  18.175
   23.872  21.906  20.979  19.308  19.879  18.272  17.057  14.431  15.529  16.621
   22.172  20.872  18.246  18.967  14.983  16.560  16.079  17.171  17.693  20.220
   19.587  20.838  16.715  15.557  15.142  15.645  18.139  18.259  17.381  18.700
   18.202  20.262  14.380  16.390  15.864  15.770  15.708  15.515  14.034  18.610
   14.156  16.196  13.636  14.039  17.412  13.199  13.965  13.820  18.792  15.961
   15.737  13.991  14.209  17.221  13.254   7.993   9.894  15.722  15.699  17.111
   17.621  11.454  14.491  14.687  10.659   8.265   9.188  12.233  11.495  16.281
    8.531   9.209   9.143   7.582   7.403   5.686   3.540   9.608   9.386  11.066

    0.550  16.507
   22.488  23.276  23.212  21.776  21.385  16.370  17.545  17.497  19.881  19.625
   19.516  23.425  20.937  17.797  17.347  17.981  17.663  17.652  17.646  18.919
   23.543  22.689  20.849  19.077  19.302  17.295  16.583  14.293  15.726  16.572
   22.550  20.922  18.690  17.313  15.283  16.542  16.346  17.136  18.153  20.322
   18.925  21.850  16.733  16.023  14.966  15.386  18.116  20.130  17.242  17.761
   17.288  20.503  14.791  16.619  16.342  15.792  15.157  15.426  14.053  18.522
   14.112  16.079  13.922  14.443  16.168  13.021  13.801  13.726  19.128  16.377
   15.853  14.116  14.813  17.739  14.052   9.247  10.596  14.752  16.288  16.348
   17.156  11.605  14.199  14.127  11.160   8.044   8.682  11.422  10.828  17.328
    9.266   9.174   9.172   8.095   6.562   6.035   3.875  10.100   9.729  11.269

    0.600  16.954
   22.298  22.861  22.964  22.355  21.300  17.429  17.351  16.353  19.098  20.151
   18.925  23.808  21.888  18.120  17.318  18.102  16.839  17.786  17.126  20.121
   23.433  21.809  21.355  18.420  19.458  17.335  17.175  13.434  16.301  16.647
   22.917  20.487  19.885  18.245  15.460  16.842  16.281  17.814  19.108  20.326
   18.952  21.003  16.833  16.558  14.071  15.118  18.154  20.721  17.288  17.128
   17.249  19.658  13.967  16.159  17.510  16.419  14.725  15.103  14.406  18.395
   14.535  15.901  14.100  14.336  16.706  12.471  14.027  13.768  18.502  15.901
   14.936  15.216  14.372  16.225  14.333   9.629  11.043  15.373  15.947  16.835
   18.328  12.639  14.806  15.012  11.211   8.521   8.492  11.756  10.913  17.546
    8.664   8.522   8.511   8.108   6.618   6.575   3.806   9.601   9.039  11.975

    0.650  16.932
   22.254  22.379  22.667  21.534  20.067  18.093  17.199  16.120  19.040  20.447
   18.596  23.111  21.515  17.949  17.052  17.665  17.339  17.915  17.212  20.265
   22.720  21.830  21.184  18.496  19.084  17.380  16.485  13.525  17.231  17.133
   23.227  19.924  19.781  18.141  15.461  17.193  15.748  18.903  20.127  20.462
   19.088  19.979  17.069  15.780  14.165  15.448  18.372  20.628  17.776  16.522
   17.436  19.753  14.911  15.593  17.345  16.012  13.320  14.851  15.339  18.607
   15.036  16.206  13.479  13.885  16.936  12.511  14.828  13.894  17.949  16.355
   15.045  15.569  14.068  15.286  14.202  10.079  11.866  13.921  14.659  16.334
   18.111  12.950  13.878  14.704  10.950   8.226   9.313  12.840  11.927  15.955
    9.106   8.786   8.338   8.558   6.409   6.376   3.265   8.908   8.892  12.158

    0.700  16.337
   22.440  23.259  21.882  20.621  18.799  18.525  17.022  15.493  17.740  20.134
   19.122  23.023  20.779  18.234  17.288  17.180  16.671  19.789  17.004  20.240
   23.198  22.704  21.563  18.549  19.788  17.530  17.079  12.980  17.563  16.760
   23.026  18.897  19.002  17.365  16.580  16.720  14.826  19.576  19.598  20.753
   19.122  20.864  16.587  16.203  14.075  15.713  17.645  19.398  17.183  16.172
   18.144  19.767  14.676  15.466  16.842  16.168  12.077  15.164  15.137  17.858
   13.851  15.681  13.664  13.745  16.977  13.113  13.990  14.256  17.775  16.273
   14.805  16.296  14.114  16.054  14.346   9.852  11.894  13.415  14.904  16.239
   18.601  12.906  12.848  14.499  10.524   8.455   8.129  12.941  11.572  16.610
   10.721   9.529   7.810   8.274   6.615   6.452   2.621   8.568   8.939  12.371

    0.750  15.834
   22.564  22.727  22.142  20.537  18.798  18.486  16.148  15.902  18.682  20.050
   18.613  22.513  21.378  18.987  17.031  18.230  16.941  20.135  17.081  19.925
   23.726  22.376  21.452  18.514  20.503  17.219  17.778  13.658  18.254  15.769
   23.625  18.374  19.046  16.541  17.240  16.880  15.105  19.392  19.885  20.151
   19.228  20.858  17.521  16.044  14.788  16.621  17.640  19.512  16.629  17.636
   18.226  19.478  14.085  15.187  15.831  16.099  12.227  16.239  15.269  18.171
   13.826  15.042  13.719  13.062  17.914  13.571  12.769  14.506  16.620  17.149
   14.592  16.140  14.468  16.590  13.759  10.797  12.323  13.673  14.877  16.333
   19.655  12.462  11.974  14.574  10.072   8.446   8.363  13.236  11.822  17.123
   10.775   9.559   8.594   8.600   6.517   7.052   3.278   7.752  10.840  11.943

    0.800  15.756
   22.434  21.679  22.133  21.769  19.154  18.818  15.532  15.705  19.923  21.266
   18.153  23.547  20.571  19.287  16.647  18.093  15.904  19.572  16.793  20.598
   24.224  22.389  20.428  18.418  20.300  17.152  17.874  14.203  17.632  16.738
   22.297  19.193  19.583  16.485  17.594  16.670  15.741  19.552  20.069  19.996
   19.171  21.203  17.352  15.841  14.764  17.387  17.433  19.165  17.374  17.907
   17.429  19.504  14.762  15.021  15.293  16.807  12.882  16.111  14.830  18.972
   12.708  14.971  13.050  13.354  17.584  13.354  12.909  15.766  16.153  17.086
   14.665  15.633  14.738  16.136  14.159  10.961  12.789  13.378  15.633  16.699
   19.492  12.489  11.722  14.628  10.937   8.526   8.359  13.317  13.013  17.777
   10.826   9.809   9.057   9.105   7.291   7.215   4.067   6.833  10.782  11.436

    0.850  14.730
   22.667  21.227  22.150  21.860  18.945  18.342  16.304  15.613  19.091  21.373
   18.928  23.910  20.598  18.975  16.675  17.623  15.714  19.446  16.927  20.388
   24.305  21.874  20.444  18.899  19.686  17.166  18.349  14.700  18.988  17.375
   21.655  19.214  19.402  15.775  17.209  16.032  16.183  19.449  19.730  20.976
   19.163  20.380  18.536  15.063  15.154  17.385  17.660  18.256  16.525  18.326
   17.210  19.563  14.617  14.333  14.466  17.393  12.903  15.973  14.854  19.025
   13.461  15.416  13.551  13.257  18.507  13.436  13.135  15.115  16.189  17.714
   14.135  14.358  13.247  16.093  14.355  11.254  13.100  12.513  16.312  16.487
   17.203  12.323  11.554  14.284  11.399   8.047   8.682  12.486  13.678  17.102
   10.534  10.473   9.674   9.082   7.737   8.973   3.141   6.355  11.180  11.694

    0.900  15.350
   22.150  20.838  21.760  21.020  19.088  17.420  16.931  15.993  18.941  20.994
   19.052  23.625  21.146  18.880  17.222  17.706  15.291  19.397  17.690  21.240
   24.654  22.242  20.688  20.863  19.289  16.792  17.904  15.756  19.346  17.184
   21.701  19.129  19.475  15.511  15.009  16.046  17.640  20.706  18.992  21.632
   19.796  19.989  18.548  15.067  15.555  16.997  17.254  18.594  16.936  18.447
   17.467  20.474  15.687  14.611  14.514  16.651  13.722  15.084  14.909  18.336
   13.767  15.334  12.544  12.524  18.781  14.342  13.053  14.928  16.321  17.022
   14.205  14.240  13.724  15.860  14.635  11.260  12.772  12.664  16.084  15.744
   16.553  12.048  12.988  14.944  11.161   8.359   7.615  12.220  14.487  16.331
   10.231  10.414   9.617   8.801   8.186   9.369   2.946   5.931  11.741  12.024

    0.950  15.852
   21.467  21.773  22.294  20.661  18.979  17.264  16.834  16.364  19.668  20.723
   18.162  22.420  21.754  18.916  16.190  16.866  15.559  19.195  17.761  21.242
   23.855  21.914  20.852  20.639  19.562  17.437  17.738  15.444  18.712  16.909
   21.754  18.229  19.049  16.823  15.600  16.250  17.922  20.244  18.630  21.940
   20.123  20.907  18.355  15.663  14.672  17.278  18.054  19.620  16.753  19.206
   17.651  20.006  15.266  15.228  15.216  15.590  14.167  15.120  15.548  17.624
   13.915  15.718  11.843  13.392  18.519  14.989  13.652  15.017  15.340  17.408
   14.039  14.393  14.425  15.864  15.081  10.019  12.567  11.820  15.791  15.866
   17.272  12.109  12.944  14.156  11.094   9.439   8.387  11.702  14.613  16.092
    9.873  10.765   9.249   9.093   7.855   9.186   2.338   5.395  11.757  12.598

    1.000  15.456
   21.082  22.374  23.124  20.798  18.331  18.262  16.494  17.088  19.752  19.964
   18.787  21.738  21.942  18.294  16.397  17.377  16.053  18.843  18.695  21.427
   23.390  21.163  21.542  20.603  19.030  18.005  17.857  15.002  18.597  17.254
   22.385  19.530  19.201  17.713  15.796  16.155  17.940  19.343  18.001  22.279
   20.199  20.161  17.260  15.148  14.123  17.544  18.951  19.974  17.294  18.681
   17.696  19.872  15.584  13.804  14.627  15.110  13.467  15.383  14.900  18.320
   13.732  16.146  11.525  13.892  18.258  13.860  13.578  15.448  15.166  17.136
   14.194  14.902  13.565  16.765  15.688   9.855  12.232  11.638  15.473  15.603
   17.679  12.584  12.329  14.301  10.682  10.162   9.331  11.485  14.065  16.793
    9.544  11.037   8.077   9.394   8.249   9.948   2.237   5.858  12.620  12.405

    1.050  16.160
   21.143  21.594  23.683  20.534  19.208  18.458  16.710  16.573  20.323  20.425
   18.281  20.925  21.544  18.331  16.483  17.155  15.438  18.932  17.748  20.207
   22.982  21.432  21.399  20.325  18.598  17.118  17.764  14.669  18.933  17.900
   22.678  19.849  18.840  17.799  15.898  14.728  18.340  19.357  17.023  21.944
   19.885  20.652  17.944  15.010  15.582  17.480  18.811  19.296  17.514  18.431
   17.846  19.777  15.539  13.279  15.610  15.498  13.922  15.958  14.634  19.042
   14.337  15.931  11.789  15.689  17.619  13.330  13.791  15.052  15.753  18.011
   14.446  15.091  12.054  16.494  15.833   9.480  11.976  11.776  16.196  16.557
   17.179  12.280  12.370  14.630   9.515   9.793   9.041  11.624  14.384  17.227
    9.935  10.263   8.170   9.537   7.653   9.940   2.863   5.540  12.881  12.411

    1.100  15.385
   20.957  21.721  24.048  20.796  18.869  18.407  17.301  15.988  20.193  19.931
   18.371  21.028  21.682  20.167  14.921  17.560  15.121  18.275  17.375  18.984
   23.197  21.234  21.892  21.019  17.669  16.630  17.475  14.357  19.635  17.724
   22.476  19.857  18.406  18.551  15.803  15.207  18.092  18.996  17.313  21.367
   20.468  20.717  17.928  14.434  16.051  16.914  18.360  18.710  16.663  18.886
   17.817  20.035  15.202  12.976  15.467  16.795  14.501  17.268  14.271  19.499
   14.545  16.297  14.048  16.059  17.060  13.411  14.230  15.164  15.726  18.588
   14.335  15.996  12.963  15.764  16.210   9.104  12.178  11.596  15.523  17.874
   16.222  12.601  11.797  14.397  10.471  10.204   9.627  12.282  15.656  17.198
    9.259  11.150   8.043   9.519   7.536   9.155   2.808   5.510  12.959  12.601

    1.150  15.549
   19.942  22.329  23.565  20.271  19.011  18.682  16.600  15.646  18.703  20.126
   17.435  21.025  21.566  20.173  15.628  17.462  14.006  17.347  16.608  19.414
   24.203  21.069  21.927  19.301  17.548  17.030  17.742  14.693  19.792  17.804
   22.151  19.321  18.255  18.258  16.049  15.429  18.091  18.560  17.684  21.836
   20.814  20.378  17.698  15.233  14.521  16.870  18.277  18.116  17.674  19.377
   18.027  19.871  14.985  13.325  15.204  16.687  14.280  16.614  14.400  19.596
   14.080  16.644  14.557  16.047  16.482  13.414  14.429  14.873  15.339  17.945
   14.925  16.264  13.210  16.018  14.348   9.003  12.795  11.401  16.203  17.703
   15.183  11.477  12.105  14.337  11.188   9.916   9.743  12.487  16.104  17.063
    8.670  10.674   7.428  10.014   7.696   8.442   3.249   5.726  13.356  13.344

    1.200  15.796
   20.631  23.050  22.133  18.550  18.861  18.520  15.206  15.430  18.505  20.513
   17.749  20.954  22.352  21.038  15.904  17.335  14.119  17.678  17.381  18.239
   24.352  21.684  21.894  18.646  18.134  17.306  18.666  14.920  20.027  17.415
   22.608  19.508  18.643  18.224  16.335  15.595  17.812  18.030  18.208  21.257
   21.472  20.690  17.800  15.140  14.273  17.196  17.661  18.148  17.219  20.436
   18.406  21.502  15.615  13.466  15.123  17.090  14.318  15.558  14.023  19.533
   13.832  16.140  14.798  15.887  15.146  14.449  14.481  14.752  15.603  17.089
   15.136  16.941  12.543  15.637  13.907   8.931  12.793  10.761  15.848  18.214
   14.896  11.483  12.133  14.141  11.065   9.820   8.997  12.475  15.467  17.503
    8.960  10.898   7.724  10.279   6.508   7.395   3.280   5.514  12.440  13.625

    1.250  15.711
   21.111  23.548  22.509  18.431  19.069  18.562  15.634  14.321  18.755  20.716
   18.520  20.522  22.506  21.282  16.304  17.451  13.943  17.751  17.499  18.423
   23.942  21.076  22.138  19.719  17.434  17.136  18.824  15.722  19.951  17.728
   23.397  20.007  18.390  18.105  17.430  15.543  17.721  17.584  18.947  20.518
   21.666  20.420  17.735  15.182  13.776  16.889  17.131  18.816  16.187  19.823
   16.961  21.142  15.993  14.075  14.872  17.102  15.549  15.763  14.527  19.017
   14.425  15.550  14.898  15.783  15.215  14.572  14.102  14.149  16.342  17.416
   14.333  16.050  12.657  15.680  13.960   9.362  11.930  11.262  15.978  18.100
   14.896  11.371  12.221  14.223  11.481   9.745   9.035  11.788  15.846  17.845
    9.053  10.016   7.013   9.619   6.353   6.967   2.429   4.676  11.806  13.615

    1.300  15.880
   20.686  24.023  22.384  18.194  19.827  18.445  16.296  14.248  18.326  19.927
   18.558  21.656  21.927  21.198  16.225  17.237  13.507  17.638  17.068  19.536
   23.248  21.376  22.555  18.966  18.125  17.691  19.003  15.543  19.446  17.704
   23.000  20.152  18.874  17.451  17.141  15.678  17.321  17.138  19.232  20.782
   21.300  20.535  18.220  15.439  13.933  16.411  17.252  19.473  15.708  19.506
   16.926  19.979  14.586  14.433  15.276  17.907  14.925  15.831  14.682  19.090
   14.743  16.035  15.160  15.791  16.088  14.495  13.484  14.798  16.651  16.744
   13.689  15.692  12.169  15.427  13.661  10.143  11.399  11.843  16.939  17.534
   14.792  11.391  11.795  13.823  10.812   9.435   8.141  12.045  16.647  17.616
    8.083  11.141   7.106   9.455   6.438   7.464   1.657   5.013  12.678  12.439

    1.350  15.768
   21.420  23.794  22.326  18.467  18.972  19.109  16.430  14.550  18.530  19.249
   17.845  22.688  21.274  21.354  17.145  18.206  14.278  17.210  17.111  19.994
   22.780  21.306  22.726  18.629  18.064  16.566  19.076  16.002  19.372  18.185
   22.851  18.419  19.023  17.203  17.141  16.246  17.651  17.122  19.033  19.366
   21.044  21.026  18.613  14.845  14.125  16.026  17.478  19.121  15.433  18.631
   17.197  19.816  14.510  14.270  15.576  18.372  15.223  16.024  14.981  19.381
   15.028  15.591  15.213  16.138  16.329  14.618  13.143  14.841  16.803  16.361
   13.901  16.144  12.147  15.402  13.302   9.710  11.638  12.047  16.863  17.607
   15.151  12.462  11.416  13.596  12.078   8.830   8.180  12.151  16.497  16.931
    8.139  10.793   7.915   8.814   6.202   7.316   1.042   6.715  12.985  12.246

    1.400  16.730
   21.361  22.918  22.797  18.321  20.318  19.146  15.521  14.995  18.225  18.835
   18.712  22.234  21.869  21.005  16.615  17.992  13.591  17.186  16.775  19.785
   22.241  20.770  23.325  18.565  18.158  17.201  19.492  16.504  19.286  18.433
   21.927  18.726  19.352  17.166  17.239  17.188  17.706  18.308  18.401  18.957
   20.993  20.709  18.181  14.699  14.855  16.801  17.433  18.678  15.259  17.741
   18.143  20.519  15.299  13.151  16.486  17.678  14.510  15.210  15.124  19.005
   15.620  16.116  15.353  16.801  16.573  14.600  13.852  14.582  16.181  15.867
   14.010  16.516  12.500  15.937  14.410   8.921  11.788  11.970  15.742  17.680
   15.043  13.384   9.813  13.344  12.061   9.272   8.733  12.857  16.380  17.072
    9.060  11.887   9.060   8.918   6.469   7.018   1.850   6.495  13.419  12.320

    1.450  16.041
   21.349  23.500  23.723  19.331  20.424  18.240  15.343  14.085  18.677  18.889
   18.755  23.025  21.789  20.150  16.829  18.435  14.478  17.861  15.651  20.007
   21.810  21.159  22.948  19.416  18.652  17.569  18.111  17.102  18.679  19.307
   23.122  17.985  19.422  16.543  16.564  17.935  18.567  17.989  18.235  19.914
   20.485  20.776  17.777  15.914  14.283  16.811  17.946  18.815  15.177  16.836
   17.504  21.898  14.390  13.305  16.622  17.551  13.889  15.428  15.309  18.865
   14.977  16.859  14.971  17.059  16.091  14.189  14.237  14.372  16.102  15.560
   13.496  16.961  12.970  15.437  14.090   9.456  11.890  12.651  15.717  17.795
   15.297  12.966  10.038  12.786  11.493   9.739   8.894  12.386  16.005  17.289
    8.839  12.414   8.566   8.009   6.127   5.141   2.285   5.903  13.097  12.157

    1.500  16.009
   21.651  23.090  24.390  18.788  19.637  17.441  16.036  13.504  18.776  18.996
   17.855  22.743  21.911  20.113  17.083  18.401  13.504  17.469  16.970  21.738
   22.627  21.171  22.661  19.020  19.935  17.356  18.531  17.342  19.193  19.549
   22.039  18.875  18.856  17.232  17.524  18.428  18.348  17.643  18.084  20.708
   20.753  20.873  17.629  16.354  13.876  15.803  19.382  19.217  14.977  17.147
   17.996  21.406  13.935  13.633  16.770  16.877  13.814  15.660  15.732  18.293
   14.779  15.983  15.837  17.269  16.245  15.201  14.534  12.814  15.871  15.766
   12.880  17.336  13.083  15.451  13.842   8.777  11.332  12.763  14.666  17.430
   15.471  13.373  10.644  13.362  11.491   8.627   8.843  13.814  16.228  17.619
    8.746  12.618   8.501   8.107   5.741   6.512   3.332   6.027  13.051  12.093

    1.550  16.526
   21.822  23.063  25.123  19.449  19.518  17.041  15.587  13.459  18.683  19.516
   16.907  23.212  21.416  21.570  17.265  17.164  13.600  17.808  16.679  22.321
   23.119  21.056  21.640  19.229  19.038  16.978  18.651  17.353  19.310  18.942
   22.439  18.223  18.373  17.457  18.180  18.031  18.238  18.130  17.093  19.791
   20.457  21.039  17.298  17.017  14.414  15.542  18.989  19.055  15.129  16.281
   18.957  21.073  14.477  13.713  16.892  16.651  14.217  14.779  15.590  18.273
   14.282  17.369  15.361  16.329  15.311  15.257  14.862  12.077  15.084  15.986
   13.283  17.222  14.162  15.171  13.405   8.533  11.537  11.991  14.401  16.943
   15.396  12.997  11.089  13.760  12.512   9.118   8.957  13.703  16.912  17.896
    9.251  12.688   7.442   8.435   5.689   6.543   3.272   6.635  12.674  12.039

    1.600  16.317
   21.195  22.810  25.269  18.944  19.961  17.645  15.668  13.962  17.587  20.421
   16.853  22.511  21.151  22.427  17.035  17.110  14.116  16.244  16.225  22.106
   24.017  21.200  20.898  19.324  19.238  17.812  18.499  16.249  18.766  18.414
   22.877  18.530  18.875  17.431  17.282  17.083  19.866  18.438  17.224  20.854
   20.173  21.436  17.772  16.880  13.402  15.285  17.977  18.140  15.358  17.671
   19.608  20.682  14.563  13.692  16.727  16.279  14.086  15.319  16.865  18.544
   14.392  17.558  15.437  16.014  14.985  15.887  14.342  12.991  14.670  16.271
   13.694  16.507  13.890  14.569  13.783   9.207  11.889  11.242  12.756  16.926
   14.860  13.351  12.018  13.285  12.639  10.288   8.967  14.405  17.322  17.861
    9.948  12.106   6.355   8.793   6.034   6.481   3.096   6.139  13.129  13.037

    1.650  16.494
   21.094  22.251  25.349  19.874  19.816  18.107  16.025  14.517  17.977  20.890
   16.684  22.680  21.387  21.770  18.767  16.592  13.855  15.819  16.256  21.352
   24.739  20.949  21.689  20.140  19.098  17.174  18.967  15.917  17.863  18.816
   21.670  19.013  19.463  17.185  17.370  17.676  19.183  18.616  17.966  20.834
   19.311  21.675  18.294  16.273  13.522  15.898  18.086  17.164  16.027  17.409
   19.281  21.414  14.582  14.794  17.415  16.462  14.477  15.885  16.537  18.142
   14.174  17.461  15.106  15.417  14.901  13.834  14.752  13.286  14.352  16.791
   14.331  15.768  12.938  14.614  13.822   8.870  10.255  10.775  13.121  18.156
   15.086  13.879  11.860  12.210  12.160  10.513   8.884  13.723  16.558  17.736
    9.499  12.263   7.443   9.730   5.960   7.014   3.465   6.899  13.101  12.779

    1.700  16.870
   21.420  21.699  25.404  19.236  20.411  17.738  15.985  13.926  18.173  20.575
   17.910  22.868  21.653  21.271  19.080  17.061  13.911  14.809  16.448  20.571
   24.026  21.333  21.711  20.402  18.772  16.321  18.292  15.190  16.952  19.033
   20.433  18.359  20.190  17.433  18.034  17.248  19.229  19.292  18.629  20.516
   19.428  21.443  18.031  15.041  12.945  16.131  17.297  18.476  15.826  17.677
   18.953  20.181  16.019  15.237  18.119  16.619  14.490  16.431  16.559  18.855
   14.152  17.133  15.246  15.790  15.001  13.470  15.382  13.431  14.041  17.539
   15.038  16.106  12.855  14.786  13.651   9.583  10.208  10.153  13.256  18.758
   14.438  14.440  11.828  12.286  12.600  10.057   9.269  13.486  15.912  18.612
    9.665  12.140   8.318   8.401   6.409   6.722   3.565   6.311  13.563  13.186

    1.750  17.338
   21.660  22.189  25.088  18.945  20.326  18.512  15.482  14.786  17.250  20.529