
This full-field turbulence file was generated by TurbSim (v1.40, 12-Sep-2008) on 27-May-2021 at 12:56:35.

 | u-comp |  Y  x  Z  | Grid Resolution (Y x Z) | Time-step | Hub Elev | Mean U |
            10    10     15.556     15.556          0.050      80.00      9.00

 Z Coordinates (m):
  -70.000 -54.444 -38.889 -23.333  -7.778   7.778  23.333  38.889  54.444  70.000

 Y Coordinates (m):
  -70.000 -54.444 -38.889 -23.333  -7.778   7.778  23.333  38.889  54.444  70.000

    0.000   9.486
   10.686  11.862  10.638  10.246  12.686  11.040  10.851   9.529   9.719   9.269
   10.200  13.792  11.544  11.604  11.651   9.273  10.220   9.130  10.247  10.028
    8.389  12.067  12.713   9.654  12.215  11.489  10.513  11.679  10.602   9.951
   11.242   9.699   9.814   9.394  10.367  10.434  11.234  11.356  12.049   8.373
    7.897   8.719   6.351   8.333   9.894  12.595   8.948  10.199  10.709  10.584
    8.301   8.989   9.038   6.572   9.368   7.725   8.475  10.305   9.112   9.155
    7.837   7.280   8.936   7.091   6.733   8.850   8.353   9.562  11.565   9.599
    6.841   9.132   8.178   5.951   6.414   5.539   6.144   9.346  11.435   8.766
    5.830   5.062   6.573   6.534   5.709   7.584   7.050   9.473   9.890   9.978
    3.387   5.165   6.708   6.497   7.076   6.280   8.427   8.970   8.018   6.389

    0.050   9.916
   10.951  12.430  10.223  10.640  12.804  10.833  10.477   9.791   9.859   9.330
   10.359  13.695  11.472  12.194  11.828   9.383   9.913   8.678   9.991   9.892
    8.396  11.852  12.504   9.737  12.298  11.568  10.706  11.693  10.337   9.858
   11.715   9.966   9.878   9.703  10.485  10.823  11.257  11.133  11.945   8.109
    7.863   8.715   6.488   8.470   9.825  12.661   8.973  10.080  10.325  10.770
    8.633   9.013   9.117   6.020   9.312   8.350   8.248  10.634   8.937   9.485
    8.075   7.375   8.156   6.939   7.109   9.224   8.213   9.844  11.759   9.802
    7.449   8.616   8.041   6.450   6.615   5.732   6.216   9.531  11.713   8.887
    5.841   4.916   6.136   6.404   5.461   7.582   7.157   9.495  10.016   9.444
    3.629   5.404   6.612   6.549   7.011   6.150   8.259   8.801   7.892   6.775

    0.100  10.137
   11.035  12.701  10.599  10.750  12.730  10.758  10.463  10.063  10.218   9.258
   10.099  13.519  11.398  11.658  11.781   9.114  10.105   8.421  10.058   9.516
    8.999  12.280  12.644   9.772  12.527  11.068  11.122  12.120  10.478  10.328
   11.534   9.499  10.391   9.700  10.552  10.905  11.075  11.180  11.747   8.223
    8.209   9.097   6.125   8.556   9.849  12.608   9.383   9.863  10.305  11.346
    8.400   9.161   9.312   6.257   9.187   8.555   8.378  10.369   9.187   9.748
    7.881   6.848   8.044   6.718   7.347   9.482   8.573  10.216  11.612   9.879
    7.469   8.089   7.799   6.114   6.828   5.856   6.450   9.581  11.643   8.880
    5.835   5.143   6.077   6.515   5.540   8.080   6.767   9.278  10.226   9.318
    3.421   5.420   6.311   6.314   7.003   5.405   7.989   8.463   7.648   6.393

    0.150   9.445
   10.837  12.737  10.882  10.513  12.559  10.312   9.977  10.134  10.201   9.047
    9.688  13.478  11.836  11.482  11.913   9.263  10.018   8.775   9.925   9.707
    9.112  12.053  12.502  10.077  13.019  11.131  11.157  12.282  10.406   9.883
   11.667   9.187  10.730  10.087  10.542  10.533  11.111  11.170  11.934   8.653
    8.097   9.208   6.288   8.716  10.259  12.632   9.546  10.106  10.389  11.976
    8.089   9.091   9.414   6.395   9.937   8.730   8.639  10.791   9.455   9.694
    7.858   6.498   8.815   6.559   7.032   8.972   8.892  10.007  11.730   9.986
    7.148   7.964   7.641   6.148   6.558   5.756   6.469   9.225  11.676   8.642
    5.569   5.606   6.282   6.433   5.213   7.859   6.636   9.528  10.334   9.225
    3.635   5.727   6.056   6.051   6.580   5.478   8.342   8.565   7.851   6.809

    0.200   9.130
   11.124  13.088  10.729  10.096  12.207  10.379   9.732  10.067  10.593   9.346
    9.607  13.523  12.184  10.957  11.427   9.292  10.308   8.763   9.914   9.337
    9.668  11.923  12.048  10.544  13.014  10.917  11.486  12.380  10.449   9.591
   11.635   9.343  10.849   9.962  10.408  10.960  11.550  10.958  11.848   9.006
    7.966   8.810   6.588   8.940   9.884  12.908   9.816  10.266  10.561  11.840
    8.624   8.651   9.257   6.562  10.057   8.947   8.526  10.789   9.648   8.973
    8.264   6.180   8.648   6.779   6.292   8.489   8.572   9.633  11.143  10.207
    7.461   7.816   7.780   6.203   6.211   5.361   5.957   9.120  11.710   8.817
    4.783   5.953   6.291   6.804   4.943   7.421   7.026   9.281  10.216   9.187
    3.204   5.663   6.057   6.116   6.528   5.592   8.470   8.348   8.188   7.183

    0.250   9.013
   10.636  13.319  10.672  10.535  12.193  10.350  10.316  10.137  10.901   9.257
    9.466  13.479  12.477  10.721  11.462   9.191  10.332   8.586   9.940   9.317
    9.940  11.685  12.214  10.197  13.031  11.098  11.024  12.323  10.544  10.161
   11.485   9.218  10.427   9.766  11.019  10.442  11.617  11.048  11.262   8.741
    7.959   8.758   6.235   8.603   9.954  12.202  10.399  10.259  10.330  12.214
    9.299   8.824   9.365   6.870  10.147   8.862   8.663  10.521  10.042   9.186
    8.451   6.164   8.635   6.909   6.045   8.267   8.782   9.377  11.347   9.940
    6.909   7.859   7.662   5.895   5.720   5.472   5.695   8.964  11.418   8.968
    5.109   5.716   6.679   6.881   5.031   7.446   6.979   9.126   9.970   8.920
    3.131   5.791   6.093   5.754   6.306   5.226   8.121   8.229   8.084   7.022

    0.300   8.693
   10.606  12.418  10.595  11.037  12.231  10.608   9.764  10.046  10.753   9.108
    9.910  13.213  12.262  10.639  11.091   8.954   9.807   8.552  10.180   9.623
   10.021  11.938  12.288  10.198  12.893  11.438  10.712  12.568  10.631  10.476
   11.338   9.166  10.244   9.588  11.183  10.076  11.757  10.844  11.065   8.413
    7.664   8.947   6.241   7.870   9.713  12.023  10.187  10.202  10.056  12.005
    9.136   9.092   9.604   6.561   9.747   8.914   8.822  10.472   9.934   9.532
    7.953   6.213   8.762   6.458   6.519   8.499   8.483   9.370  11.565  10.011
    7.296   7.632   7.284   6.608   5.588   5.395   5.911   8.716  10.948   9.201
    5.541   5.197   6.574   6.623   5.461   7.828   7.060   9.532   9.717   9.104
    3.160   5.938   6.454   5.928   6.083   5.221   8.125   8.134   8.329   6.802

    0.350   8.955
   10.408  12.722  10.673  11.028  12.452  10.565  10.282  10.408  10.480   9.706
   10.022  13.414  12.415  10.489  11.252   9.041   9.774   8.681   9.994   9.690
    9.855  12.256  12.382  10.340  12.639  11.524  11.166  12.712  10.759  10.400
   11.591   9.360   9.994   9.618  11.492  10.018  11.856  10.440  11.130   8.429
    7.955   9.421   6.173   7.857   9.313  12.087  10.085  10.266  10.014  11.921
    8.645   9.223   9.115   6.208   9.382   8.645   8.861  10.476   9.784   9.642
    8.310   6.270   8.909   6.360   6.811   8.597   8.508   9.546  11.524  10.077
    7.281   7.886   7.601   7.192   5.863   5.384   6.187   8.582  11.472   9.270
    5.392   5.335   6.847   6.256   5.655   8.260   7.174   8.923   9.924   8.831
    3.022   6.045   6.598   5.747   5.938   4.983   8.391   8.329   8.384   6.575

    0.400   8.998
   10.460  12.338  10.714  10.968  12.914  10.693  10.773  10.621  10.635   9.489
   11.115  13.320  12.681  10.167  11.303   9.015   9.516   9.007   9.690   9.790
    9.817  11.979  12.569  10.178  12.774  11.325  11.237  12.963  10.259  10.079
   11.645   9.145   9.960   9.766  12.075   9.765  11.909  10.705  10.869   8.466
    7.826   9.541   6.102   8.251   9.606  12.141  10.044  10.623  10.045  11.622
    8.912   9.136   9.046   6.858   9.695   8.614   8.927  10.312   9.721   9.348
    8.296   5.990   8.956   6.229   6.502   8.723   8.442   9.646  10.872   9.797
    6.951   7.717   7.833   7.409   5.167   5.572   6.438   8.726  11.481   8.935
    5.529   5.313   6.550   6.452   5.252   8.672   6.972   8.597  10.427   8.724
    2.968   6.121   6.959   5.573   5.612   4.518   7.793   7.943   8.216   6.732

    0.450   8.910
   10.558  12.322  10.606  11.016  12.856  10.506  10.645  10.667  10.968   9.468
   11.421  12.866  12.426   9.943  11.095   8.999   9.588   9.259   9.856   9.976
   10.131  12.170  12.469  10.072  12.753  11.604  11.451  12.157  10.451  10.144
   11.109   8.450  10.002   9.207  12.421   9.908  12.172  10.793  10.773   8.729
    8.386   9.612   6.297   8.292   9.442  12.657  10.080  11.063  10.059  11.453
    9.260   9.478   9.264   7.365   9.823   9.125   9.185   9.900   9.618   9.558
    7.772   6.131   8.776   6.175   6.671   8.917   8.350   9.382  10.546  10.257
    6.523   7.317   7.458   7.685   5.368   5.951   6.607   8.424  11.847   8.492
    5.539   5.377   6.537   6.286   4.961   8.808   6.602   9.007  10.512   9.128
    3.296   5.489   7.003   5.463   5.675   5.044   7.432   8.249   8.229   6.123

    0.500   8.761
   10.484  12.648  10.127  10.902  13.276  10.710  10.502  10.562  11.022   9.738
   11.327  12.927  12.521   9.777  11.187   9.055   9.557   9.170   9.530   9.758
   10.099  11.800  12.592  10.500  12.710  11.923  11.423  12.945  10.375  10.429
   11.169   8.204   9.979   9.190  11.897  10.340  11.884  10.520  10.663   8.965
    8.814   9.622   6.597   7.970   9.360  13.095   9.902  11.102  10.300  11.416
    9.074   9.902   9.335   7.126  10.129   8.925   9.117  10.183   9.964   9.642
    7.968   6.566   8.592   6.005   7.050   9.287   7.640   9.253  11.025  10.220
    6.434   7.576   7.311   7.588   5.218   5.894   6.392   8.286  11.510   8.472
    5.390   5.303   6.775   6.124   5.241   8.925   6.603   8.673  10.380   8.818
    2.795   5.527   6.735   5.637   5.464   5.338   7.285   8.392   8.224   6.364

    0.550   9.550
   10.164  12.698  10.565  11.552  13.087  11.011  10.684  10.579  10.884   9.071
   11.127  13.089  12.285   9.903  11.438   9.377   9.547   9.251   9.491  10.214
   10.106  11.516  12.250  10.195  12.493  12.552  11.675  12.918  10.345  10.262
   11.643   8.288  10.041   9.480  11.564  10.239  11.619  10.167  10.706   8.926
    8.833  10.208   6.736   8.235   9.885  12.629   9.916  10.790  10.466  10.964
    9.077   9.346   9.108   7.272  10.582   9.049   8.926  10.126   9.638   9.498
    7.834   6.640   8.941   5.727   7.351   9.066   7.440   9.643  11.028  10.587
    6.431   7.460   7.237   7.866   5.654   5.342   6.953   8.600  11.095   8.533
    5.404   5.881   7.094   6.040   5.527   8.664   6.640   8.908  10.515   8.644
    3.116   5.544   6.404   5.656   5.260   5.263   7.718   8.169   8.174   6.134

    0.600  10.002
    9.638  13.269  10.572  11.778  13.401  11.148  10.901  10.407  10.932   9.452
   10.980  13.084  12.169  10.391  11.292   8.878   9.808   8.974   9.705  10.153
   10.461  11.552  12.088  10.113  12.916  12.457  11.615  12.677   9.956  10.161
   11.651   8.307  10.117   9.517  11.372   9.997  11.342  10.156  10.742   8.681
    8.820   9.708   6.310   7.754   9.892  11.886   9.900  10.138  10.258  11.122
    8.733   9.570   8.429   7.272  10.409   9.180   8.882  10.172   9.532  10.188
    7.989   6.220   8.898   5.593   7.560   9.231   8.003   9.733  11.273  10.081
    6.647   7.905   7.337   7.661   5.994   5.309   6.712   8.076  11.397   8.476
    4.974   5.939   7.507   5.984   5.606   8.309   6.412   8.566   9.910   8.117
    3.066   5.640   6.863   5.411   5.013   5.543   7.325   8.111   7.779   6.086

    0.650   9.757
   10.243  12.947  10.427  11.604  13.569  10.994  10.861  10.520  11.439  10.180
   10.924  13.084  12.272  10.709  10.885   9.182  10.039   9.164   9.454  10.165
   10.634  11.453  12.242  10.214  12.726  12.710  11.825  12.501  10.018   9.908
   11.636   8.569  10.031   9.513  11.763  10.365  11.108  10.195  10.312   8.825
    8.704   9.583   6.425   7.867   9.591  11.708   9.899  10.425  10.452  10.891
    8.983   9.203   8.056   6.942   9.969   9.170   8.332  10.211   9.570  10.065
    7.876   6.080   8.584   5.731   7.590   9.508   7.731   9.481  11.114  10.016
    6.979   7.995   8.229   7.500   6.175   5.282   6.816   7.884  11.304   8.631
    4.480   5.463   7.574   6.411   5.680   8.105   7.149   8.184  10.346   8.216
    2.898   5.260   6.825   5.575   5.162   5.810   7.790   8.315   7.863   6.323

    0.700   9.756
   10.746  12.579  10.248  11.305  13.911  10.837  10.590  10.678  11.380  10.454
   10.690  12.818  12.390  10.063  10.781   9.105  10.144   9.112   9.202   9.710
   10.519  11.633  12.269   9.887  12.868  12.343  12.079  12.212  10.193   9.442
   11.582   9.030  10.323   9.792  11.706  10.650  10.928  10.557  10.668   8.700
    8.920   9.711   6.401   7.620   9.697  11.523  10.489  10.598  10.203  11.213
    9.135   8.672   8.602   6.717   9.402   8.980   8.254  10.071   9.618   9.497
    7.578   6.133   8.618   6.302   7.835   9.552   7.518   9.316  10.762   9.839
    6.997   8.007   8.002   7.461   6.153   5.437   7.482   8.340  11.221   9.195
    4.985   5.811   7.300   6.567   5.682   8.067   7.463   8.254  10.296   8.195
    3.479   4.905   7.114   5.267   4.967   5.931   7.951   8.214   7.635   6.534

    0.750   9.278
   10.440  12.353  10.018  11.159  13.560  11.000  10.243  10.707  11.217  10.539
   10.536  12.587  12.449  10.260  10.632   9.188  10.194   9.236   9.213   9.695
   10.581  11.311  12.278   9.660  12.874  12.553  11.737  12.150  10.130   9.849
   11.934   9.191  10.439   9.395  11.370  10.312  11.036  10.264  10.181   8.899
    9.049   9.837   6.340   7.620   9.744  11.150  10.205  10.317  10.606  10.954
    9.479   8.156   8.849   6.469   9.971   9.327   8.241  10.471   9.584   9.616
    7.565   6.236   8.620   6.247   7.641   9.324   8.108   9.336  11.008   9.905
    6.699   8.011   7.713   7.344   6.244   5.538   7.415   8.478  11.050   9.404
    5.158   5.877   7.336   6.834   5.770   8.338   7.425   8.213  10.005   8.451
    4.046   5.080   7.262   5.269   4.927   5.989   8.105   8.625   7.312   5.712

    0.800   9.308
   10.743  12.423  10.280  11.260  12.961  11.031  10.219  10.134  10.986  10.001
   10.376  12.496  13.013  10.147  10.675   9.312   9.964   9.151   8.800  10.337
   10.467  10.808  12.130  10.010  12.581  12.109  11.213  12.619  10.476  10.169
   11.698   8.722  10.473   8.950  11.583  10.111  10.689  10.194  10.004   8.511
    8.719   9.617   6.614   7.244   9.853  11.584  10.073  10.191  11.094  10.568
    9.752   7.889   8.802   6.092  10.329   9.816   8.298  10.468   9.647   9.674
    7.810   6.442   8.847   5.796   8.057   9.366   8.357   9.091  10.848   9.739
    6.172   8.364   7.952   7.629   6.632   5.377   7.248   8.657  11.143   9.298
    5.392   5.504   7.407   6.952   5.757   8.195   7.287   8.700  10.373   8.561
    3.884   4.936   7.038   5.449   4.816   5.901   9.056   8.659   6.866   6.236

    0.850   9.399
   10.975  12.640  10.610  11.223  13.621  10.371   9.967  10.114  10.816  10.038
   10.502  12.504  13.167  10.186  10.820   9.393   9.751   8.699   8.694  10.049
   10.293  10.730  12.244   9.857  12.349  12.093  11.095  12.567  10.878  10.119
   11.248   9.509  10.336   9.295  11.660   9.680  10.897  10.322   9.792   8.177
    9.021   9.581   6.579   7.113   9.775  12.010   9.589   9.599  10.809  10.384
    9.677   7.879   8.611   5.944  10.282   9.816   8.203  10.098   9.522   9.889
    7.707   5.988   8.244   5.911   7.917   8.813   8.199   9.145  11.202   9.751
    6.206   8.056   8.132   7.575   6.529   5.652   7.193   9.083  11.190  10.044
    5.839   5.850   7.309   6.812   5.707   8.397   7.439   8.534  10.313   8.817
    4.008   4.883   6.868   5.476   4.434   6.421   8.591   8.328   7.325   6.026

    0.900   9.001
   11.132  12.844  10.120  11.449  13.455  10.342   9.874  10.577  10.521  10.324
   10.538  12.373  12.611  10.457  11.170   9.250  10.012   9.213   8.547  10.477
    9.875  10.899  12.147  10.253  12.225  12.715  11.357  12.565  10.909   9.787
   11.529   9.452  10.105   9.480  11.906  10.091  11.123  10.611   9.883   8.371
    8.451   9.241   6.511   6.889   9.882  11.875   9.650   9.670  10.516  10.619
    9.859   8.216   8.940   6.507  10.178   9.674   8.019   9.979   9.707  10.181
    8.232   5.611   8.006   6.110   7.846   8.784   8.021   9.207  11.117   9.818
    6.711   7.660   8.142   7.510   6.717   5.743   7.524   9.285  11.575   9.930
    6.236   5.464   6.847   7.266   5.576   8.201   7.127   8.183   9.798   8.786
    3.721   4.723   6.536   5.356   4.761   6.205   8.548   8.655   7.596   5.914

    0.950   9.140
   10.988  12.424  10.051  11.676  13.259  10.351  10.478  10.519  10.549  10.268
   10.655  12.796  12.522  10.139  10.892   8.889  10.435   9.466   8.746  10.661
   10.760  11.022  12.188  10.314  11.576  12.513  11.638  11.798  10.925   9.834
   11.376   9.640   9.427   9.073  12.056  10.386  10.770  10.739   9.630   8.402
    8.315   9.372   6.565   7.217   9.521  11.898  10.072   9.311  10.518  10.528
   10.098   8.130   9.290   6.471   9.734   9.690   7.857  10.294   9.917   9.558
    7.979   6.254   8.040   6.266   7.954   8.540   7.987   9.005  10.710   9.616
    6.802   8.070   8.200   7.432   6.381   6.188   7.388   9.152  11.818   9.850
    6.483   5.637   6.559   7.109   5.080   8.563   6.658   8.194   9.836   8.774
    3.701   5.080   6.224   5.111   4.344   5.610   8.601   8.440   7.485   6.032

    1.000   9.404
   10.966  12.928  10.209  11.688  13.476  10.556  10.252  10.445  10.594  10.566
   10.864  13.051  12.632   9.756  11.209   8.446  10.336   9.134   9.051  10.424
   11.033  10.850  12.627  10.267  11.279  12.198  11.634  12.170  11.014   9.603
   11.179  10.205   9.284   9.069  11.374  10.580  10.543  10.377  10.029   8.532
    8.026   9.788   7.232   7.153   9.252  11.671   9.671   8.978  10.407   9.918
    9.982   8.792   9.111   6.197   9.849  10.125   8.114  10.667   9.997   9.754
    7.884   5.901   7.916   6.543   7.694   8.588   7.936   8.950  10.499   9.772
    6.566   7.574   8.015   7.178   5.842   6.093   7.405   9.197  11.688   9.798
    6.402   5.355   6.618   6.740   5.404   8.252   6.478   8.610  10.056   8.752
    3.410   4.623   5.888   5.013   4.921   5.804   8.545   8.595   7.285   5.961

    1.050   9.116
   10.726  13.268  10.221  11.398  13.570  10.690  10.379  10.429  10.647  10.096
   10.904  13.036  12.950   9.834  11.304   9.272  10.419   9.220   8.743  10.289
   11.191  11.160  12.496  10.227  11.321  11.925  11.718  12.250  10.660   9.356
   11.660  10.211   9.053   9.472  11.394  10.340  10.588  10.221   9.773   8.285
    8.329   9.688   7.469   7.537   9.220  11.323   9.547   8.969  10.400   9.665
    9.957   8.553   8.878   6.552   9.886  10.207   7.941  10.341   9.874   9.847
    8.206   6.106   8.093   6.331   7.304   8.596   7.740   8.642  10.478   9.768
    6.453   7.110   8.523   6.869   5.833   6.459   7.818   8.701  12.152   9.685
    6.391   5.295   6.853   6.572   5.254   8.415   6.738   8.457   9.685   8.921
    3.400   5.173   5.807   5.091   4.417   5.936   8.616   9.069   7.350   5.798

    1.100   9.427
   10.523  13.263  10.213  11.437  13.781  10.460  10.412  10.577  11.204   9.578
   10.238  12.148  12.675  10.328  11.348   9.395  10.090   8.845   8.465  10.239
   11.161  11.312  12.064  10.311  11.116  11.693  11.230  12.184  10.856   9.358
   11.410  10.411   9.684   9.649  11.308  10.458  11.165  10.425   9.814   8.231
    8.712   9.806   7.325   7.298   9.486  11.082  10.013   9.136  10.630   9.729
    9.963   8.568   8.387   7.293   9.645  10.203   7.703  10.035   9.812   9.537
    8.104   5.907   7.599   6.578   7.012   8.851   7.725   8.677  10.635   9.570
    6.343   7.723   8.670   6.688   5.573   6.257   7.719   9.060  12.255   9.787
    6.478   5.669   7.052   6.151   4.782   8.684   6.699   8.727   9.609   8.949
    3.509   5.107   6.156   4.999   4.565   6.166   8.252   8.511   7.531   5.916

    1.150   9.621
   10.763  13.312  10.707  11.911  13.523  10.612  10.077  10.248  11.021  10.372
   10.042  11.903  12.668  10.039  11.859   9.014   9.807   8.946   8.978  10.146
   11.507  11.771  12.085  10.290  11.429  11.757  11.344  12.237  10.642   9.215
   11.259  10.412   9.472   9.481  11.328  11.055  11.221  10.618   9.743   8.050
    8.391   9.626   6.361   7.430   9.520  11.165  10.487   9.189  10.517   9.514
   10.316   8.973   8.431   7.196  10.139   9.379   7.501   9.842  10.090   9.736
    8.601   6.635   7.523   6.482   6.910   8.726   7.469   8.777  10.772   9.499
    6.587   7.609   8.420   6.530   5.462   6.263   7.869   8.979  11.951  10.199
    6.355   5.794   7.096   6.396   4.584   8.730   6.526   8.843   9.688   9.045
    3.184   4.982   5.938   5.044   4.799   6.299   8.258   8.541   7.639   6.092

    1.200   9.554
   11.018  13.377  10.347  12.024  12.746  10.317  10.399  10.206  11.175  10.256
    9.883  12.052  12.655   9.807  11.899   8.965   9.202   8.765   9.165  10.353
   10.566  11.480  12.404   9.928  11.366  11.776  11.191  12.253  10.273   9.304
   11.449  10.479   9.284   9.086  11.011  11.193  11.511  10.253   9.804   8.003
    8.537   9.284   6.180   6.976   9.698  10.806  10.130   8.837  10.600   9.463
   10.276   9.160   8.234   7.096  10.078   9.550   7.494   9.879  10.169   9.774
    8.158   7.030   8.220   7.028   7.109   8.517   7.466   8.348  10.871   9.506
    6.907   7.280   8.553   7.413   5.401   5.875   7.658   8.754  11.650  10.250
    6.462   5.665   7.223   6.771   4.685   8.369   6.749   8.239   9.593   8.920
    2.905   5.133   5.816   4.685   4.707   6.084   8.606   8.746   7.537   5.666

    1.250   9.595
   11.450  13.515  10.145  12.384  12.955  10.172  10.349   9.760  10.786  10.167
   10.220  12.203  12.551   9.593  12.023   9.050   9.342   8.297   8.937  10.979
   10.766  11.365  12.387   9.665  11.685  11.787  11.070  11.764  10.229   8.753
   11.377  10.034   9.346   8.941  10.665  11.041  11.186  10.361   9.982   8.098
    8.530   9.612   6.307   7.031   9.426  10.794  10.063   8.792  10.852   9.446
   10.857   8.907   8.249   7.080  10.431   9.831   7.383   9.994  10.385   9.652
    8.174   7.034   7.728   7.086   7.242   8.581   7.409   8.617  10.917   9.252
    7.147   7.529   8.434   7.556   5.421   6.143   7.651   8.942  11.819  10.350
    6.297   5.278   7.118   6.384   4.974   8.288   6.820   8.490   9.685   8.810
    3.071   5.200   6.068   4.649   4.312   6.460   8.370   8.692   7.314   6.120

    1.300   9.725
   11.947  13.747  10.736  12.454  12.828  10.276  10.400  10.289  10.390  10.135
   10.287  12.102  12.930   9.616  12.013   8.647   9.578   8.343   9.280  10.362
   11.035  11.446  12.406   9.710  11.676  11.830  11.277  11.408   9.794   9.153
   10.961   9.955   9.764   8.785  10.614  11.045  11.054  10.871   9.844   7.988
    8.593   9.547   6.149   7.012   9.451  10.622   9.408   9.201  11.047   9.279
   10.655   8.591   8.430   7.058  10.676   9.561   7.713  10.286  10.249   9.790
    7.888   7.153   8.006   7.213   6.842   8.611   7.429   8.542  10.760   9.940
    6.703   7.366   8.493   7.499   5.622   6.449   7.813   8.944  11.721  10.156
    6.732   5.221   7.018   6.335   5.304   8.447   6.835   8.415   9.674   9.336
    3.110   5.592   5.671   4.924   4.235   6.455   8.266   9.051   6.691   5.837

    1.350   9.904
   11.821  13.779  10.798  12.062  12.828  10.620  10.402  10.069  10.465  10.677
    9.804  12.519  12.624   9.910  11.893   9.078   9.619   8.694   9.146   9.898
   10.728  11.058  12.499   9.720  11.658  12.082  11.112  11.484   9.754   8.946
   10.958  10.151  10.178   8.755  11.034  11.472  11.002  11.038   9.999   8.135
    8.808   9.489   6.204   7.249   9.454  10.045   9.665   9.256  10.918   8.952
   10.653   8.654   8.754   7.150  10.362   9.374   7.752  10.182   9.966   9.739
    8.060   7.244   8.090   7.078   7.018   8.441   6.760   8.493  11.556  10.171
    6.740   7.457   8.408   7.633   5.969   6.787   8.305   8.423  11.388   9.993
    6.517   5.258   7.021   6.099   5.773   8.323   7.332   8.796   9.283   9.298
    2.672   5.291   5.665   4.793   4.514   6.021   8.234   9.797   7.013   5.743

    1.400   9.411
   11.754  14.130  10.515  11.746  12.807  10.513  10.484   9.566  10.793  10.472
    9.914  12.558  12.284  10.173  12.098   9.203   9.638   8.540   8.842   9.610
   10.848  11.099  12.022   9.709  11.541  12.054  11.155  11.564  10.425   9.428
   10.973   9.939  10.080   8.842  10.902  11.485  11.343  10.883   9.781   8.267
    9.078   9.743   6.228   7.354   9.678  10.152   9.424   8.978  10.832   8.471
   10.647   8.720   8.654   7.827  10.236   9.391   7.948  10.224   9.767   9.473
    8.411   7.142   8.085   6.822   6.544   8.308   7.006   8.337  11.390   9.887
    6.948   7.131   8.552   7.615   5.690   6.636   8.306   8.031  11.283  10.194
    6.108   5.061   7.102   6.439   6.084   8.391   7.422   9.146   9.417   9.113
    2.609   5.308   5.694   5.100   4.341   6.068   7.943   9.878   7.050   6.008

    1.450   8.676
   11.081  14.212  10.801  11.923  12.861  10.250  10.726   9.377  10.771  10.138
    9.956  12.396  12.404   9.967  12.006   9.417   9.750   8.658   8.220   9.914
   11.212  10.953  12.503   9.584  11.881  11.983  11.232  12.107  10.434   9.725
   10.921  10.074  10.152   9.032  10.372  11.162  11.793  10.545   9.957   8.671
    9.061  10.180   6.320   7.799   9.692   9.748   9.354   9.293  10.950   8.295
   10.120   8.315   8.181   7.990  10.026   9.325   7.881  10.467   9.687   9.682
    8.104   7.313   7.813   6.894   6.360   8.242   7.129   8.892  11.475  10.228
    6.829   6.918   8.630   7.111   5.318   6.569   8.503   8.171  11.244  10.092
    6.494   5.718   6.634   6.036   5.775   8.788   7.489   8.894   9.498   9.177
    3.076   5.304   6.362   4.945   4.448   5.430   7.595   9.687   6.879   6.356

    1.500   8.368
   11.032  13.682  10.914  11.571  12.846   9.853  10.235   9.039  11.306   9.763
    9.960  12.207  12.910   9.494  12.497   9.625   9.812   8.936   8.376  10.048
   11.179  10.651  12.512  10.188  11.892  12.104  11.001  11.549  10.093   9.824
   11.116  10.236  10.508   8.522  10.195  11.177  11.187  10.380   9.809   8.892
    8.847  10.399   6.820   7.410   9.892   9.776   9.489   8.979  11.693   8.814
   10.116   8.746   7.967   7.910  10.313   8.925   8.057  10.565   9.378   9.654
    7.764   7.053   8.116   6.940   6.080   8.722   7.254   8.974  11.234   9.376
    6.701   6.972   8.360   7.400   5.534   6.473   8.446   8.272  11.249   9.785
    6.358   5.634   6.496   6.195   5.739   8.671   7.460   8.482   9.363   8.972
    3.051   4.696   6.718   4.979   4.534   4.860   7.495   9.576   7.112   6.430

    1.550   8.170
   11.016  13.455  10.579  11.116  12.665   9.602  10.425   8.659  11.313   9.402
   10.215  11.973  13.018   9.378  12.321  10.403   9.658   9.065   8.870  10.123
   11.031  10.741  12.346  10.205  12.230  12.390  11.490  11.332  10.257   9.782
   11.120  10.568   9.971   8.447   9.551  11.169  11.693  10.661   9.669   8.757
    8.838  10.034   6.784   7.099   9.301  10.008   9.059   8.656  11.019   8.629
    9.708   8.765   7.994   7.766  10.177   9.168   7.864  10.723   9.477   9.689
    8.288   6.804   8.170   6.633   6.214   8.273   7.460   8.695  11.384   9.575
    6.537   7.091   8.481   7.463   5.334   6.542   9.160   7.994  11.404   9.671
    6.309   5.879   6.851   6.046   5.591   8.490   7.678   8.199   9.335   8.782
    2.943   4.765   6.797   5.128   4.794   4.783   7.366   8.998   7.038   6.386

    1.600   8.293
   10.759  13.678  10.749  11.049  12.555   9.313  10.553   8.855  11.311   9.134
   10.850  12.216  12.780   9.542  11.989  10.764   9.473   9.167   8.869  10.129
   11.134  11.377  12.177   9.878  12.326  12.032  11.680  10.938  10.216  10.162
   10.974  10.869   9.694   8.318   9.467  11.513  11.610  10.393   9.649   8.285
    8.666  10.247   6.347   6.893   8.918   9.953   9.393   8.819  10.358   8.336
   10.382   8.731   8.094   7.775   9.831   8.807   7.970  10.511   9.246   9.604
    8.834   7.368   7.683   6.282   6.333   8.874   7.889   8.637  11.226   9.848
    6.840   7.508   8.327   7.505   5.080   6.814   9.251   8.190  11.649   9.693
    6.384   6.025   7.298   6.536   6.171   8.247   7.884   7.623   9.528   9.217
    3.114   4.390   7.216   5.596   4.776   5.477   6.894   8.855   7.058   6.742

    1.650   8.437
   11.219  13.443  10.579  11.416  12.981   9.393  10.389   8.843  10.982   8.854
   10.867  12.063  12.573  10.360  11.642   9.879   9.622   8.925   8.501   9.985
   11.023  11.117  12.497  10.163  12.478  11.847  12.121  10.652   9.830  10.132
   11.122  10.627   9.762   8.961   9.164  11.188  11.805   9.847   9.573   7.859
    8.449   9.829   6.699   6.762   8.761  10.255   9.164   9.601  10.038   7.708
   10.685   8.502   8.210   7.886   9.678   9.001   7.655  10.469   9.076   9.582
    8.681   7.225   7.926   6.799   5.815   8.761   7.614   8.878  11.185   9.957
    7.410   7.888   8.537   7.195   5.532   6.279   9.484   7.667  11.818   9.372
    6.772   5.482   7.656   6.469   5.960   8.137   7.594   7.470   9.686   9.311
    3.494   4.510   7.108   5.451   4.753   5.276   6.760   9.065   6.970   7.158

    1.700   8.539
   11.454  12.954  10.703  11.447  13.081   9.761  10.475   9.010  10.789   9.348
   11.307  12.535  12.593  10.031  12.096  10.058   9.693   8.940   8.417   9.892
   10.744  11.439  12.037   9.796  12.051  11.505  12.104  10.692  10.106  10.151
   10.985  10.846   9.417   8.995   8.934  10.976  11.671   9.043   9.596   8.192
    8.516   9.614   6.773   6.543   9.062  10.803   8.949   8.934  10.171   7.724
   10.935   8.391   8.521   7.881   9.484   9.430   7.274  10.535   8.678   9.304
    8.579   7.271   7.785   6.634   5.356   8.472   7.436   8.605  11.583   9.875
    7.659   7.452   8.762   7.232   5.352   6.472   9.306   7.857  11.951   9.630
    6.595   5.614   7.095   6.280   6.265   8.211   7.553   8.123   9.734   9.235
    3.439   4.641   6.382   6.203   4.644   4.951   6.645   9.129   7.140   6.947

    1.750   9.173
   11.769  12.891  10.939  11.406  12.909   9.937  10.543   9.099  11.353   8.855