
This full-field turbulence file was generated by TurbSim (v1.40, 12-Sep-2008) on 27-May-2021 at 12:57:15.

 | u-comp |  Y  x  Z  | Grid Resolution (Y x Z) | Time-step | Hub Elev | Mean U |
            10    10     15.556     15.556          0.050      80.00     25.00

 Z Coordinates (m):
  -70.000 -54.444 -38.889 -23.333  -7.778   7.778  23.333  38.889  54.444  70.000

 Y Coordinates (m):
  -70.000 -54.444 -38.889 -23.333  -7.778   7.778  23.333  38.889  54.444  70.000

    0.000  24.056
   22.074  28.890  24.675  27.101  27.588  24.273  23.541  27.734  24.217  21.376
   22.447  25.710  26.789  24.443  28.737  28.362  23.768  26.648  24.867  22.361
   24.764  21.749  21.434  25.171  26.062  26.814  27.933  25.484  25.315  22.156
   24.918  22.467  19.167  26.109  28.623  26.283  23.872  25.974  24.293  25.823
   20.829  23.708  24.143  25.007  28.908  23.793  21.620  23.643  22.153  21.897
   21.931  23.997  24.541  24.048  25.217  23.131  23.482  17.187  20.976  20.718
   20.356  22.820  24.227  22.113  24.027  25.045  22.776  15.694  17.980  16.719
   20.201  17.992  23.709  20.879  22.442  18.796  18.390  15.259  17.890  18.102
   18.293  18.164  18.796  18.757  16.773  18.919  13.378  18.281  17.591  15.122
   12.210  10.682  15.880  15.360  13.200  15.108   7.617   9.046  11.123  14.674

    0.050  22.944
   21.907  27.755  24.340  25.851  28.176  25.323  23.713  27.914  23.792  20.651
   22.678  24.876  25.685  24.348  29.312  28.311  23.445  28.162  25.151  22.382
   23.923  20.996  21.195  25.608  25.631  26.326  28.033  26.162  25.089  23.803
   24.498  21.841  18.715  26.937  29.473  26.289  24.855  26.538  25.612  25.584
   21.218  24.327  24.989  25.385  28.898  24.770  22.408  23.180  23.111  21.481
   22.516  24.410  24.984  24.090  25.387  22.013  23.066  19.153  20.859  21.147
   20.868  22.437  23.955  22.344  23.387  25.255  21.950  15.780  17.048  16.756
   19.182  19.546  22.443  20.663  23.284  19.217  18.885  15.922  18.203  18.049
   19.033  18.248  18.590  18.267  16.435  18.054  13.397  18.515  17.323  15.105
   12.565  11.415  15.367  15.088  12.771  13.566   7.140   8.534  11.290  15.209

    0.100  23.780
   22.209  28.105  24.491  25.764  28.546  24.632  23.827  26.912  23.599  21.039
   22.030  25.181  25.868  25.402  30.239  27.489  22.897  27.222  25.201  22.028
   24.128  20.775  22.429  26.189  24.976  25.391  27.298  26.088  26.089  22.985
   23.757  21.380  18.766  26.590  29.010  27.339  24.727  26.836  25.256  25.226
   22.589  23.758  25.525  24.366  29.006  25.083  22.244  22.423  22.882  21.329
   21.996  24.505  24.720  24.474  25.847  22.804  23.793  19.466  21.509  21.309
   21.184  22.542  24.306  22.902  22.435  24.809  22.164  16.517  16.684  17.756
   19.159  19.852  21.283  19.958  22.559  18.794  18.926  16.358  17.329  17.691
   18.994  17.410  18.950  17.513  17.637  18.283  13.446  18.542  16.531  15.679
   12.327  11.657  14.523  13.974  11.626  13.527   7.734   8.606  11.978  15.147

    0.150  24.181
   22.557  28.696  24.419  25.580  29.140  24.135  22.851  26.901  23.827  20.845
   23.043  25.079  25.861  26.481  29.710  27.580  23.211  27.109  25.230  22.362
   23.416  20.409  22.094  25.143  24.958  26.083  25.871  26.504  25.065  22.788
   23.139  21.568  19.860  26.384  28.164  28.190  25.879  26.909  25.571  25.919
   23.022  23.725  25.816  23.968  28.076  25.618  22.855  22.396  23.019  22.273
   22.911  24.577  23.213  24.457  25.974  23.133  24.833  20.134  21.370  20.841
   21.507  22.622  25.143  22.214  21.287  25.448  22.322  17.454  17.249  18.537
   19.058  19.286  20.996  19.905  23.168  18.019  18.315  15.993  17.484  17.414
   20.460  16.324  18.329  16.811  17.427  18.488  14.767  17.548  16.407  15.921
   12.545  12.358  14.380  13.523  10.917  13.801   7.520   8.887  11.689  14.641

    0.200  23.901
   22.922  28.292  24.656  26.124  29.627  24.144  22.609  25.521  23.209  20.256
   21.990  25.114  25.863  26.349  30.142  26.988  23.715  26.155  24.273  22.353
   23.702  20.528  21.943  24.120  25.638  26.235  25.902  27.477  24.947  22.807
   22.920  20.883  19.937  26.841  28.579  28.818  25.235  27.567  25.528  25.699
   22.854  24.198  25.774  23.943  27.972  25.742  23.438  21.569  22.135  22.531
   22.835  25.099  23.244  23.368  25.591  23.825  24.193  19.770  21.133  20.155
   20.983  23.087  24.607  22.604  20.384  25.225  22.544  17.363  17.972  18.842
   19.360  20.279  20.692  20.117  22.929  17.802  18.943  17.068  17.833  18.081
   19.297  16.338  18.961  17.416  17.541  19.207  15.202  16.946  16.965  16.579
   11.663  12.106  14.783  13.057  10.675  13.787   7.535   9.035  11.218  15.333

    0.250  24.165
   22.082  28.708  24.400  25.793  30.229  25.982  22.063  25.997  22.878  20.645
   20.634  25.696  25.501  24.853  30.074  27.717  24.474  25.659  24.242  21.927
   23.286  22.084  22.822  24.415  25.668  26.787  25.682  26.199  25.657  23.051
   22.673  22.037  19.581  26.643  28.680  28.192  25.156  28.959  24.862  25.206
   23.181  22.804  24.883  24.331  28.205  24.195  23.327  22.870  21.090  21.484
   21.807  25.738  24.558  23.422  26.071  23.837  23.341  19.950  20.769  20.711
   21.388  23.471  25.608  22.447  20.269  25.851  23.436  18.279  17.601  19.278
   18.894  19.171  20.716  19.447  24.303  19.247  18.688  16.936  18.386  18.515
   19.547  15.605  18.726  17.209  17.306  18.959  15.547  17.462  16.176  16.561
   11.528  12.692  15.352  13.085  10.801  13.982   8.121   8.638  11.495  15.720

    0.300  23.696
   22.574  28.871  24.113  25.192  29.612  25.875  22.463  26.372  23.355  20.839
   20.795  25.709  26.066  24.621  29.666  27.074  24.615  25.563  23.447  22.100
   24.135  22.055  22.272  24.832  26.590  27.322  25.857  25.704  25.954  22.995
   22.757  21.829  20.045  26.627  28.467  27.901  24.532  28.993  25.983  24.815
   23.772  23.258  24.840  25.863  28.924  24.571  23.284  23.321  22.263  21.433
   21.076  24.958  25.833  23.879  26.183  22.981  22.913  19.866  20.069  20.523
   22.417  23.181  26.823  22.140  20.764  24.329  23.987  18.267  17.475  19.277
   19.074  20.094  20.246  19.701  24.812  19.869  18.343  15.463  17.975  18.054
   19.204  16.797  17.878  16.716  16.762  20.062  15.441  17.211  14.938  16.729
   11.672  12.485  15.378  12.975  11.248  14.035   8.037   8.456  11.838  14.999

    0.350  24.301
   23.192  28.335  24.820  25.238  29.275  26.104  23.542  25.639  22.507  21.223
   21.406  25.913  25.103  23.507  30.748  26.640  23.916  25.476  24.088  22.448
   23.781  22.281  21.756  24.625  26.183  26.871  26.126  25.479  26.010  24.014
   22.630  22.664  20.117  25.471  28.952  27.292  25.235  29.975  26.483  24.622
   23.130  22.466  25.925  25.454  28.610  23.685  22.771  22.568  22.446  20.794
   20.691  25.896  25.278  24.253  25.008  24.261  24.048  20.748  20.024  21.062
   22.696  23.339  27.558  22.036  20.286  24.628  25.264  17.963  18.325  19.310
   19.596  20.689  21.005  20.619  23.591  20.405  17.250  14.829  18.069  18.955
   19.880  17.171  17.347  15.919  16.032  19.736  15.691  17.081  15.988  15.492
   11.052  12.574  14.936  13.137  11.704  13.367   8.490   8.678  12.056  14.911

    0.400  24.067
   23.948  27.261  24.367  25.368  29.607  26.127  24.823  25.471  23.148  20.775
   21.039  27.817  24.503  23.906  29.402  26.635  24.808  24.917  23.730  22.555
   23.530  21.751  22.131  25.150  25.986  26.283  26.195  25.079  26.379  24.332
   23.006  22.361  20.062  26.000  30.326  26.972  24.759  29.598  27.651  24.479
   22.728  22.520  26.475  25.293  27.994  23.948  22.997  21.399  22.765  21.002
   21.024  26.028  24.346  23.897  25.335  25.340  23.623  19.958  19.744  20.484
   24.407  23.832  26.918  21.861  19.795  24.608  25.310  18.402  18.353  18.835
   18.384  20.648  19.828  19.682  22.640  21.322  16.134  15.066  18.058  18.334
   20.685  17.571  17.432  16.759  15.735  19.790  15.338  16.315  17.006  14.820
   11.655  11.139  14.078  13.766  11.614  12.441   7.129   9.304  12.711  14.486

    0.450  23.201
   24.256  27.139  24.507  25.530  30.104  25.905  26.162  24.662  23.776  20.060
   21.670  27.098  24.314  23.974  28.378  27.642  24.843  24.292  23.516  22.973
   24.038  21.178  22.288  24.522  26.402  25.993  26.138  24.002  26.103  23.773
   23.651  22.533  20.868  26.874  31.086  26.881  23.910  27.845  27.535  25.192
   22.439  22.305  26.123  25.152  29.134  23.353  21.968  21.242  22.537  21.133
   22.748  25.463  24.893  24.368  25.666  24.122  23.441  19.877  20.597  20.290
   24.774  23.871  26.878  21.453  20.163  24.382  25.446  17.109  19.192  18.030
   18.831  19.902  19.831  19.782  21.738  20.651  16.366  14.956  18.840  17.891
   20.658  18.103  17.156  16.860  15.567  19.319  15.611  16.116  16.257  14.398
   11.462  11.499  13.467  13.438  11.675  13.674   8.170   9.184  13.136  14.239

    0.500  23.309
   24.494  27.092  23.660  25.719  30.576  24.496  25.601  25.818  24.221  19.215
   21.304  25.481  24.827  25.113  27.950  27.382  25.092  23.358  23.934  23.351
   23.430  21.016  22.167  24.423  26.417  25.015  25.542  23.710  26.310  24.636
   23.826  23.234  19.951  27.563  30.720  26.632  24.341  26.964  26.834  26.442
   21.811  22.417  27.184  25.128  29.883  23.356  20.674  21.527  22.068  20.971
   22.901  25.652  25.171  26.122  25.627  24.101  22.211  19.946  20.532  20.480
   23.952  23.756  25.921  21.415  19.200  24.550  25.134  17.393  19.648  17.582
   19.249  19.444  19.905  20.189  21.307  19.797  15.620  15.501  19.471  18.408
   19.394  17.927  15.844  16.272  16.016  18.114  15.036  16.293  16.277  14.797
   10.938  11.729  14.389  13.834  11.454  14.193   8.472   8.625  13.307  14.169

    0.550  23.534
   24.257  27.080  23.924  25.736  32.041  24.471  25.637  26.005  24.280  20.030
   21.694  24.938  24.365  24.690  27.373  27.087  25.657  22.534  24.245  22.693
   23.014  20.537  23.165  23.735  25.894  24.818  25.035  24.276  26.850  25.237
   25.075  23.561  20.158  26.447  30.789  26.513  24.985  27.364  27.518  26.660
   22.069  22.609  26.805  23.987  29.978  22.832  21.122  20.899  21.056  21.525
   23.027  24.412  25.791  25.674  24.475  23.527  21.860  19.686  20.365  20.222
   23.553  24.038  25.628  21.592  18.144  24.638  24.942  17.457  18.240  18.013
   20.071  18.922  20.261  21.132  20.771  19.012  14.363  15.148  20.106  17.797
   19.486  17.869  15.807  16.479  15.411  18.066  15.945  16.805  16.769  13.498
   11.727  11.741  13.968  14.230  10.974  14.911   8.498   7.696  12.609  15.020

    0.600  22.828
   23.432  26.579  23.432  25.126  30.322  24.717  24.595  26.408  24.868  20.336
   21.133  25.336  25.511  25.186  27.475  26.905  25.869  22.790  23.258  23.673
   23.731  20.597  24.055  24.569  26.173  25.019  24.834  25.125  25.056  24.855
   26.103  23.745  20.497  26.600  30.684  26.593  24.724  27.698  26.881  26.622
   21.670  23.871  26.355  24.063  29.345  22.278  21.533  23.326  20.650  20.444
   23.796  24.671  26.422  26.869  22.936  22.873  22.912  20.136  19.446  20.015
   24.096  24.051  25.516  21.557  18.721  24.359  25.359  18.077  16.944  18.513
   20.769  18.730  21.039  21.779  21.337  19.547  14.658  15.120  20.121  17.692
   18.564  17.105  14.657  15.849  15.129  17.218  15.699  15.604  15.723  15.013
   10.997  11.009  13.460  14.390  11.337  15.189   7.917   6.236  12.661  14.487

    0.650  22.895
   23.216  26.676  23.265  26.157  29.821  23.519  24.761  27.474  25.036  19.246
   20.413  25.129  25.345  25.875  27.454  26.208  25.650  24.285  22.796  23.445
   24.310  20.724  24.522  24.328  25.593  25.092  24.526  24.927  25.083  24.908
   26.137  23.667  19.872  25.944  30.412  25.986  25.459  26.794  26.144  25.898
   21.388  22.992  25.814  24.048  28.510  22.548  21.520  22.554  20.365  21.031
   23.473  24.723  26.098  27.669  23.479  22.991  24.016  19.765  19.740  19.974
   23.694  24.580  25.291  21.615  18.610  25.331  24.244  18.302  16.969  19.027
   20.648  19.373  20.979  20.035  21.105  19.343  14.982  13.694  18.799  17.206
   17.902  16.131  15.144  15.790  15.220  17.211  15.850  14.696  14.992  15.055
   11.682  11.790  13.263  14.627  11.545  14.999   7.749   5.959  13.218  14.226

    0.700  22.534
   23.079  26.707  23.584  25.679  29.495  23.514  24.617  27.291  23.993  18.379
   20.023  24.567  24.782  26.718  27.382  25.842  25.933  23.397  22.428  23.822
   24.235  21.183  24.922  24.801  25.825  25.587  24.911  25.711  25.585  25.135
   25.547  25.007  21.031  26.863  29.188  26.105  25.145  26.609  26.759  25.923
   21.252  23.464  25.581  24.642  29.084  23.733  21.063  22.935  20.738  22.415
   22.637  24.950  26.301  27.995  24.570  23.243  22.639  19.972  20.377  19.627
   23.068  24.335  25.971  22.183  18.616  24.528  24.534  18.397  17.439  18.836
   20.956  20.276  20.958  20.377  21.146  19.207  15.206  12.944  19.082  17.187
   17.563  16.070  16.311  16.267  15.639  16.593  16.678  14.907  15.009  14.193
   13.366  12.388  13.245  14.376  11.916  15.905   8.396   5.414  14.224  13.648

    0.750  21.728
   23.402  26.765  24.152  25.176  28.911  23.698  23.903  27.782  24.587  18.470
   20.361  24.003  24.643  25.926  27.404  25.208  25.998  23.563  22.380  23.691
   25.053  21.525  23.957  25.004  25.364  25.628  24.908  26.809  25.846  26.515
   25.548  24.352  21.438  26.873  29.526  26.355  23.949  27.027  26.860  25.366
   21.197  23.403  25.429  25.027  28.625  23.693  21.423  23.002  21.916  22.051
   22.973  25.100  25.698  27.696  24.501  23.812  22.645  21.213  20.677  20.350
   23.506  25.736  25.928  23.103  17.872  23.980  25.558  17.615  18.784  18.733
   20.618  21.037  21.559  20.773  20.482  19.418  15.228  13.202  19.108  17.555
   15.801  16.252  17.216  15.942  15.299  16.372  16.215  14.890  13.614  14.598
   13.342  12.548  14.329  15.008  12.430  16.036   9.403   5.322  13.047  13.875

    0.800  22.093
   22.702  26.210  24.982  25.418  28.675  22.901  23.796  28.312  25.074  18.728
   20.011  23.226  24.866  25.540  27.044  25.445  24.753  23.291  22.572  23.449
   25.263  20.904  23.603  26.275  24.789  25.732  23.837  25.903  25.907  25.696
   25.916  23.209  21.723  26.008  30.834  26.874  24.261  26.263  25.996  25.747
   21.374  23.035  24.518  25.483  28.139  23.146  21.175  23.590  22.195  22.525
   22.320  24.899  25.302  27.037  24.129  25.156  23.601  20.988  21.106  20.846
   24.481  26.364  26.813  23.165  17.746  23.544  24.673  17.819  18.565  19.111
   20.714  20.385  21.462  20.160  21.016  18.936  15.232  12.379  18.950  17.181
   15.655  16.336  17.470  16.459  14.282  16.147  16.163  15.714  13.865  15.498
   13.420  12.844  14.651  15.073  13.121  16.906   8.260   5.865  12.159  14.522

    0.850  22.036
   21.612  27.738  24.901  25.525  27.339  23.404  22.887  27.864  25.424  20.157
   20.310  23.611  25.160  24.710  26.879  24.624  23.553  22.753  23.401  23.311
   24.869  21.088  23.839  25.261  26.183  25.399  23.802  25.017  26.483  24.853
   24.572  23.008  21.311  25.186  29.671  27.468  25.187  25.945  24.510  25.766
   21.727  23.934  22.878  25.878  27.147  23.780  21.282  22.787  22.268  23.595
   21.521  25.238  25.668  26.021  24.474  24.876  24.290  20.567  22.011  20.298
   24.595  26.465  26.670  23.283  17.307  22.870  24.253  18.462  18.731  19.567
   20.072  19.234  20.172  19.958  20.935  18.202  14.196  13.268  17.517  17.221
   18.023  16.351  17.076  16.292  14.658  15.739  16.630  15.431  14.303  15.269
   13.038  13.638  14.955  14.697  13.102  16.795   8.324   6.623  11.945  14.620

    0.900  23.166
   21.912  26.988  23.999  25.704  27.178  23.464  22.818  27.812  25.103  20.758
   20.569  21.791  25.919  24.512  26.864  24.165  24.141  23.539  22.933  23.962
   25.555  21.329  23.376  25.750  26.743  25.087  23.326  25.371  27.099  23.917
   24.714  22.391  20.174  26.065  30.321  28.760  24.236  24.491  24.625  24.995
   21.404  24.100  22.683  24.549  27.778  23.835  20.898  22.483  21.547  24.539
   21.797  25.598  25.536  26.075  25.540  24.170  24.089  20.963  22.196  21.388
   23.881  26.232  27.540  22.472  18.234  22.628  23.655  17.836  18.798  19.383
   20.073  19.323  21.031  19.595  21.145  17.077  13.985  13.485  17.007  17.723
   18.605  16.686  16.008  16.600  15.151  14.530  15.916  14.947  15.179  14.183
   12.752  13.248  14.329  14.646  12.695  15.238   8.720   7.088  10.784  14.249

    0.950  22.773
   22.064  27.027  23.976  24.727  27.045  24.502  22.474  27.769  24.990  20.990
   20.969  21.965  24.978  25.036  26.865  24.069  24.318  24.177  23.354  25.365
   26.223  22.070  23.899  26.060  26.761  25.668  22.868  24.796  26.172  23.934
   25.263  23.125  19.905  25.406  30.948  28.706  24.239  25.511  24.891  25.862
   21.927  24.248  22.517  24.179  27.152  23.887  21.888  23.191  21.779  24.358
   22.076  24.959  24.997  24.584  25.126  25.016  23.665  20.637  22.453  20.725
   24.102  25.772  26.334  21.130  18.531  23.886  23.752  18.029  17.951  19.432
   19.886  19.995  20.204  19.950  20.692  17.595  13.963  14.671  17.209  17.305
   17.803  16.062  17.486  17.183  15.352  14.851  15.605  14.304  15.086  14.126
   12.292  14.047  13.547  15.057  12.423  15.098   9.303   8.211  10.618  13.877

    1.000  22.255
   21.751  27.108  23.907  25.190  26.965  24.220  21.915  27.716  25.362  21.097
   20.667  23.177  25.606  24.452  26.289  24.764  25.103  23.752  23.761  24.204
   25.657  21.883  24.499  25.091  25.616  25.545  22.626  25.097  25.976  23.959
   25.423  22.304  20.197  24.422  30.389  28.944  25.033  25.579  24.374  26.059
   22.246  24.367  21.616  23.385  28.108  23.771  21.543  22.233  21.377  23.537
   22.466  25.605  24.739  25.232  24.644  24.396  24.069  19.766  23.107  19.976
   23.473  25.652  24.884  21.341  18.171  22.443  23.545  17.798  18.420  19.689
   20.255  20.287  18.923  18.942  19.997  18.405  14.533  14.820  16.754  16.305
   18.086  16.137  17.655  16.671  15.910  15.794  16.981  13.796  14.343  14.820
   12.055  13.549  12.674  14.968  12.211  14.161  10.300   8.034   9.230  14.113

    1.050  22.249
   21.042  27.683  22.918  25.533  26.386  23.220  22.388  28.097  26.402  20.216
   20.528  23.072  26.120  24.089  24.895  26.474  24.085  22.491  23.711  23.417
   26.166  22.353  24.790  24.143  25.885  26.116  22.833  25.198  25.138  23.837
   25.781  22.059  20.925  25.034  30.706  27.340  25.698  25.562  24.209  25.134
   22.193  24.264  22.106  23.515  28.993  23.178  20.873  22.531  21.822  23.055
   22.814  25.753  24.649  25.206  23.473  22.638  23.514  20.055  22.660  20.516
   23.534  25.389  24.156  22.536  17.056  22.577  23.660  17.411  18.243  19.345
   20.094  20.596  20.347  18.291  19.194  18.984  14.654  14.790  16.764  14.862
   19.252  16.106  18.290  17.326  14.516  15.767  16.698  14.129  14.819  14.666
   12.427  13.421  13.460  14.838  11.593  12.717   9.998   8.580   8.772  14.270

    1.100  22.951
   19.638  27.539  24.271  26.129  27.567  22.962  22.661  27.121  25.823  20.053
   20.344  23.256  26.701  24.245  24.579  27.061  24.258  23.003  24.958  24.604
   26.322  21.878  25.125  24.733  26.233  25.853  22.460  24.301  26.075  23.800
   26.428  22.551  20.590  25.283  30.402  27.710  25.113  25.460  25.426  24.439
   22.462  24.090  21.990  24.508  28.427  23.927  21.369  23.434  22.123  21.618
   23.146  26.379  25.175  24.290  23.576  22.651  24.547  21.667  22.710  20.745
   23.835  25.107  26.384  22.464  16.387  22.726  23.495  17.498  17.741  18.348
   20.271  20.150  19.978  18.718  19.434  19.737  14.465  14.628  16.762  15.741
   20.490  16.571  18.169  17.400  14.963  16.056  17.611  14.679  15.275  14.255
   11.562  13.970  12.780  14.739  12.165  12.320  10.230   8.799   8.263  13.883

    1.150  23.269
   18.803  27.925  24.091  25.739  28.377  22.630  22.930  27.167  26.881  19.576
   21.652  22.928  26.247  22.921  24.094  26.812  23.997  23.404  24.875  24.146
   25.843  21.621  25.785  24.782  26.706  24.974  22.656  24.454  26.073  23.253
   25.723  22.332  20.680  24.854  30.825  28.120  24.484  26.214  25.089  24.715
   22.041  23.857  22.313  24.727  29.937  24.119  21.877  23.000  22.505  22.135
   23.121  26.046  24.869  23.753  23.078  22.807  24.279  21.108  22.999  20.347
   23.320  25.115  26.087  21.423  16.121  23.507  23.092  17.612  17.957  19.498
   19.951  19.505  19.401  18.325  21.211  19.652  14.609  14.343  16.893  15.827
   20.811  16.656  18.397  17.536  16.023  15.832  17.113  14.667  13.751  14.276
   11.061  13.629  13.137  14.890  11.237  12.218   9.864   8.824   7.931  13.572

    1.200  23.377
   19.638  27.450  24.559  27.404  27.910  23.097  23.048  26.656  27.597  20.451
   21.548  22.392  26.201  23.454  23.757  26.419  23.681  23.877  25.311  24.504
   26.538  21.360  25.894  24.346  28.113  24.498  22.586  24.533  25.589  23.434
   25.750  23.096  20.860  24.095  29.826  28.110  23.966  26.647  24.586  25.166
   21.176  23.952  22.333  24.841  29.316  24.899  21.752  22.706  22.080  22.136
   23.779  27.457  25.862  24.162  23.212  22.543  24.917  21.565  23.676  20.582
   23.376  23.815  26.030  21.036  17.795  22.509  23.352  18.398  17.170  19.363
   19.187  18.853  19.837  18.493  20.754  19.626  15.770  13.087  16.981  16.258
   20.345  15.710  18.825  17.330  16.460  15.582  16.695  14.210  13.190  14.112
   11.438  13.515  13.170  13.768  11.712  12.940   9.698   9.187   8.974  13.867

    1.250  23.843
   20.017  25.857  24.517  26.950  26.746  22.786  22.696  25.143  27.456  20.946
   21.020  21.684  27.487  23.671  24.989  26.738  24.261  23.957  24.963  24.263
   25.221  21.592  25.570  24.668  28.802  23.321  22.431  24.046  25.520  22.760
   24.198  22.168  21.229  24.537  29.221  27.266  23.932  26.116  24.959  25.010
   21.500  23.827  22.183  24.853  28.571  25.016  21.106  23.445  20.987  21.160
   22.856  27.785  26.288  24.911  23.660  22.419  23.639  22.258  23.532  21.329
   24.088  24.466  25.362  20.701  18.864  22.648  24.200  18.337  17.339  19.337
   19.960  19.848  19.546  18.226  20.669  19.298  15.152  12.933  17.078  15.842
   20.180  15.502  19.445  17.433  16.937  15.415  16.426  14.446  12.966  13.285
   11.380  13.275  13.151  13.396  12.526  13.728  10.544  10.362   8.668  14.990

    1.300  24.104
   20.069  25.802  24.716  25.515  27.473  21.857  23.394  25.363  27.636  21.367
   20.893  22.444  27.869  23.162  25.370  26.956  24.762  23.345  25.045  23.164
   24.038  21.380  24.547  24.658  28.426  23.695  23.646  24.027  25.574  22.449
   24.135  22.102  21.646  24.837  29.351  26.081  23.649  25.567  24.664  24.280
   22.241  23.816  22.700  24.691  28.343  24.521  21.375  22.988  21.946  21.185
   21.929  26.355  25.772  24.897  24.373  21.217  22.853  21.731  22.913  21.518
   23.936  24.257  25.141  20.725  18.523  22.697  24.739  18.435  18.268  18.837
   20.598  20.031  19.627  18.239  20.398  20.581  14.605  13.294  17.736  15.825
   19.813  14.474  19.501  16.805  17.104  14.842  16.356  15.119  11.537  13.346
   10.277  14.467  14.147  12.974  12.612  13.328  11.694   9.418   7.609  15.739

    1.350  24.142
   20.500  25.081  26.169  25.983  27.257  19.898  23.589  25.320  27.797  21.336
   21.437  21.553  27.968  22.850  25.145  26.088  23.634  22.379  25.140  22.738
   24.018  21.691  23.940  24.967  27.599  23.472  24.990  24.100  24.840  22.416
   24.749  21.325  22.430  24.964  29.162  25.955  24.394  27.034  23.614  25.277
   22.260  23.971  23.233  24.436  29.057  24.638  20.936  23.146  22.370  22.352
   22.893  26.825  27.117  24.643  23.728  20.470  22.369  21.980  22.409  21.599
   23.831  25.059  24.316  20.127  19.194  23.338  23.928  18.871  18.824  18.175
   20.344  19.621  18.763  17.686  19.685  20.163  14.528  13.058  16.115  16.443
   19.848  15.069  19.414  16.477  18.573  15.030  17.396  15.300  10.802  13.870
   10.667  14.141  15.323  13.084  13.119  13.094  12.451   8.237   7.427  15.144

    1.400  24.370
   20.585  25.214  26.118  25.923  25.986  20.337  23.977  24.542  28.300  20.695
   21.693  20.603  26.665  24.056  24.992  25.730  22.792  22.179  25.403  22.161
   24.023  21.441  24.406  24.658  27.772  23.848  24.679  23.715  24.753  22.236
   24.810  19.827  22.799  24.904  28.362  25.642  24.053  27.260  23.978  25.462
   21.957  23.686  22.978  25.403  28.571  23.526  20.529  23.978  22.459  22.180
   22.603  26.440  26.268  25.837  22.751  21.200  22.504  21.233  22.039  21.088
   23.052  24.380  24.414  20.322  19.825  23.528  24.305  18.655  18.356  18.199
   20.505  19.812  18.497  18.248  20.507  19.867  14.695  13.120  15.978  16.655
   19.896  16.185  17.781  15.724  17.946  15.770  17.252  15.117  10.584  13.659
   11.508  15.685  15.069  12.873  13.082  13.152  11.770   9.083   7.493  15.253

    1.450  24.352
   20.740  25.672  24.721  25.407  25.478  20.659  23.775  23.214  28.036  21.732
   21.995  21.124  26.168  23.567  25.552  24.994  22.201  23.029  26.178  21.148
   23.056  21.611  24.074  25.371  28.545  23.015  24.486  22.052  24.592  21.864
   24.433  20.418  21.684  25.676  28.309  24.031  23.364  27.941  24.103  25.117
   21.689  23.526  23.559  24.947  29.054  23.224  19.435  24.073  21.661  21.440
   23.288  24.706  26.868  25.257  22.474  21.549  21.424  21.026  22.003  19.767
   23.714  24.846  23.495  21.229  20.125  23.873  24.425  17.666  18.335  19.136
   20.981  20.200  18.718  17.879  20.281  20.095  13.956  12.930  16.009  16.905
   19.908  16.210  18.588  15.449  18.058  14.970  17.071  15.386  10.605  13.218
   11.186  15.401  14.244  13.053  13.291  15.207  11.194   9.709   7.948  14.976

    1.500  24.591
   21.498  25.800  25.343  25.269  25.881  21.036  24.052  23.650  27.734  21.173
   21.289  21.715  26.394  24.364  26.093  24.271  23.028  23.786  25.398  21.438
   23.354  21.377  22.937  24.643  28.038  22.951  24.693  22.318  24.728  23.103
   23.168  21.477  20.768  25.423  27.325  24.176  22.968  27.402  24.063  25.570
   21.824  23.379  23.956  24.468  28.527  23.163  20.715  25.119  21.303  21.820
   23.421  25.055  25.545  25.090  22.660  21.646  21.419  20.885  21.924  19.453
   23.944  24.802  23.569  22.382  19.651  24.512  24.355  17.144  17.869  19.794
   20.123  21.213  19.115  17.828  19.843  19.810  14.064  11.983  16.826  17.407
   20.412  16.609  19.271  15.827  18.954  15.752  16.978  14.420  10.011  13.005
   11.167  15.678  14.019  14.008  14.006  14.078  10.201   9.076   8.005  14.800

    1.550  24.459
   22.210  25.592  25.020  25.677  26.188  21.479  23.740  23.453  27.963  21.101
   20.869  21.267  27.098  23.166  26.062  24.557  23.252  24.500  24.518  23.715
   22.559  20.886  24.072  24.071  28.253  23.364  25.016  23.436  24.782  22.598
   21.825  22.749  20.158  25.401  28.134  24.472  23.684  26.978  23.641  25.010
   22.217  23.110  23.693  25.257  28.013  22.342  20.582  24.611  21.453  23.191
   23.034  25.627  24.351  24.929  22.879  21.431  21.737  21.186  21.898  19.377
   24.007  25.071  23.240  21.986  18.593  24.800  23.191  18.934  18.645  19.799
   19.500  21.692  20.451  17.282  20.002  20.836  13.885  12.760  18.003  17.638
   20.382  16.533  20.469  15.102  18.865  16.520  16.827  14.344   9.411  13.008
   11.881  14.981  13.047  13.832  14.562  13.898  10.527   9.428   7.850  14.018

    1.600  24.486
   22.183  26.160  24.353  25.798  25.232  21.310  24.320  23.500  28.190  22.087
   22.087  21.180  27.367  23.317  25.527  23.257  23.559  22.668  24.482  22.789
   20.565  19.909  24.482  22.746  27.985  24.999  25.396  23.642  24.269  23.115
   21.276  22.923  18.864  25.649  28.177  23.772  24.691  26.398  24.969  24.444
   23.504  23.404  23.351  25.918  26.860  23.472  19.924  25.019  21.829  23.122
   24.067  25.713  23.410  25.410  23.340  21.867  22.031  21.940  21.069  19.730
   23.498  26.493  22.959  21.521  18.021  23.025  22.931  18.724  19.215  19.404
   19.425  21.074  20.140  17.050  20.322  20.972  13.455  13.616  19.020  16.111
   20.061  17.122  20.822  13.781  17.933  15.293  16.610  14.347  10.212  13.307
   12.411  14.701  14.641  14.213  14.578  13.896  10.467   9.439   7.644  14.671

    1.650  23.884
   22.141  26.827  25.004  25.747  24.535  22.018  25.039  24.269  28.280  22.217
   20.587  22.030  26.524  23.719  26.657  22.649  23.015  22.403  25.915  22.911
   20.569  19.385  24.700  23.435  27.430  24.815  24.693  24.656  25.093  22.395
   22.713  23.260  19.700  25.975  28.119  23.758  24.622  25.282  24.490  24.130
   23.660  24.215  24.046  24.966  26.624  24.367  20.457  26.185  21.576  22.826
   25.100  26.335  23.587  26.630  24.015  22.066  21.710  20.960  21.442  19.967
   23.358  26.628  22.542  21.435  18.326  23.559  22.039  18.442  19.659  19.013
   20.076  20.165  19.758  17.538  20.075  21.228  14.869  14.383  18.005  15.450
   19.994  17.998  20.762  13.940  18.186  15.063  16.416  15.433  11.097  12.798
   11.927  14.795  16.025  12.523  14.934  13.101   9.988   9.549   7.862  14.598

    1.700  23.900
   21.817  25.966  25.513  25.365  24.844  21.134  25.180  24.602  28.373  23.370
   19.693  23.100  26.773  22.751  25.934  22.976  22.584  22.908  26.444  23.006
   21.856  19.123  24.613  23.048  27.263  25.501  24.008  24.844  25.630  21.976
   22.121  22.773  20.155  26.057  27.307  23.638  24.942  24.344  24.731  24.804
   23.585  24.419  24.061  25.081  27.218  24.767  20.772  25.546  22.615  22.411
   24.633  25.583  24.406  26.555  22.991  21.803  21.450  20.939  22.266  20.903
   22.734  26.591  23.253  21.350  18.100  24.082  21.654  18.809  19.408  19.692
   20.654  20.466  20.707  17.298  20.353  21.077  15.025  14.063  17.922  15.667
   19.590  18.262  20.662  14.070  17.542  15.354  15.520  15.062  10.548  13.713
   12.126  14.546  16.150  12.545  14.743  13.624  10.101  10.218   8.286  14.827

    1.750  23.632
   23.355  26.139  25.613  25.792  24.506  20.083  25.154  25.181  27.113  24.053