
This full-field turbulence file was generated by TurbSim (v1.40, 12-Sep-2008) on 27-May-2021 at 12:57:12.

 | w-comp |  Y  x  Z  | Grid Resolution (Y x Z) | Time-step | Hub Elev | Mean U |
            10    10     15.556     15.556          0.050      80.00     23.00

 Z Coordinates (m):
  -70.000 -54.444 -38.889 -23.333  -7.778   7.778  23.333  38.889  54.444  70.000

 Y Coordinates (m):
  -70.000 -54.444 -38.889 -23.333  -7.778   7.778  23.333  38.889  54.444  70.000

    0.000  -1.041
    0.549   0.713   0.490  -0.293   1.653   0.240  -0.558  -0.976  -0.223   2.310
   -1.951  -0.799   0.699  -1.006   1.618  -1.998   3.051   0.121  -0.443   0.646
    0.825  -1.815  -1.566  -1.207  -0.528   0.116   1.428  -0.678   1.171  -1.493
    0.893  -2.764   0.290  -2.424   1.140  -0.101   1.606   0.343   0.901  -0.928
    0.396   1.864   1.071   0.416   1.113   1.527  -1.253  -2.871  -0.479   0.736
    0.143  -0.347  -0.811  -1.346  -0.423  -2.113   0.693  -1.965  -1.034   3.128
    0.918   0.786  -0.151  -0.791  -1.029  -2.028  -1.860  -0.530  -0.141   3.159
    1.169   1.378  -1.634  -2.013   0.988   1.428  -0.673   0.712   2.281   0.745
   -0.828   1.484   1.592  -1.603  -2.605  -2.768   3.012   3.325  -3.081   0.495
    1.517  -2.189   1.344  -1.214  -0.703  -0.612   2.487   0.019  -0.938   1.063

    0.050  -0.560
    0.632   0.158   0.022   0.320   1.474  -0.279  -1.054  -1.201  -0.479   0.892
   -1.613  -1.866  -0.572  -1.956   1.479  -2.098   2.025  -1.341  -0.428  -0.458
    1.144  -1.760  -0.451  -0.415  -0.191   0.742   0.600   0.046   1.670  -0.870
    2.469  -3.603  -0.061  -2.577   1.444   1.236   1.539   0.086  -0.117  -0.209
    0.985   2.761   1.145   0.283   0.570   0.815   0.491  -3.990   0.307   0.419
   -0.157   0.150  -1.223  -2.327  -0.724  -2.093   1.185  -1.971  -0.391   3.562
    1.016   1.148   0.003  -0.900  -0.744  -2.715  -0.789  -0.186  -0.233   3.051
    0.777   0.556  -1.173  -0.489  -0.126   1.470  -1.354   0.526   2.453   0.240
   -1.363   2.414   1.799  -0.734  -4.163  -3.035   1.762   0.950  -2.393   0.220
    1.027  -1.718   0.994  -1.518  -0.106  -0.074   1.913   0.796  -0.556  -0.273

    0.100  -0.970
    0.626  -0.230   0.419  -0.223   1.840  -0.346  -0.359  -0.134  -1.361   0.385
   -1.445  -2.424  -1.197  -0.369   2.339  -1.341   1.400  -1.814  -0.552  -0.462
    0.305  -1.517  -0.055  -0.354   1.076   1.155  -0.286   0.773   1.110  -0.740
    1.362  -3.298   0.907  -1.915   1.704   1.159   2.129   0.587   0.372  -0.716
    1.422   3.119   0.262  -0.105   1.217   0.434  -0.334  -2.808  -1.521   0.464
   -0.153  -0.228  -1.805  -2.574  -0.143  -0.397   0.733  -0.933   1.084   3.892
    1.851   0.755  -0.130  -1.188  -1.554  -3.092  -0.113  -0.643  -1.114   2.113
    1.590  -0.082  -1.132  -1.285  -0.746   0.784  -2.853   0.010   1.742   0.115
   -0.989   1.718   1.948  -0.352  -3.820  -1.670   0.975   0.455  -2.503  -0.266
    0.436  -1.145   0.972  -1.172   0.157  -0.336   2.442   1.406  -1.467  -0.400

    0.150  -1.592
    0.933  -0.159   1.944   0.069   2.435  -0.244   0.158  -0.040  -2.097  -0.286
   -0.580  -4.043  -1.827  -0.505   2.119  -1.520   0.582  -1.539  -0.925  -0.638
    1.303  -1.796  -0.952  -0.641   0.938   1.819  -0.594   0.588   0.458  -0.246
   -0.034  -3.568   0.155  -1.597   0.831   2.437   1.295   1.295  -1.011  -1.996
    0.920   4.013   0.553   0.266   0.545   1.317  -1.049  -2.880  -1.329   0.083
    0.043  -0.488  -1.878  -2.591  -0.088   0.040   2.219  -1.567   0.246   3.089
    1.570   0.950  -0.981  -0.334  -1.382  -2.713  -0.058   0.152   0.000   2.198
    1.526  -0.416  -1.437  -2.091  -1.953   1.673  -2.033   1.123   1.577   0.805
   -0.834   1.477   0.259  -1.052  -3.697  -1.008   0.508   1.768  -1.405  -1.799
    0.049  -0.876   2.037  -0.489   1.433  -1.063   1.427   1.009  -2.059  -0.001

    0.200  -1.184
    1.425  -0.901   2.475   0.430   3.022  -0.428  -1.245  -0.593  -2.004   0.249
   -0.299  -3.313  -1.811  -0.163   2.213  -0.888   0.202  -1.905  -1.346  -0.173
    1.482  -2.026  -1.678  -0.350   0.752   1.169  -0.318   0.603   0.623  -0.291
   -1.086  -2.526  -0.204  -0.554   0.604   1.664   0.570   1.970  -0.029  -1.591
   -0.073   3.930   0.308   0.502   0.194   0.745  -1.135  -3.406  -1.147   0.747
   -0.606   0.375  -1.327  -1.556   1.256  -0.345   3.071   0.074  -0.827   2.750
    1.796   0.155  -1.833  -0.764  -0.621  -2.704  -0.226   0.585   0.012   1.683
    1.333   0.253  -0.935  -1.516  -0.792   0.949  -2.745   1.223   2.101   0.901
    0.508   1.906   0.707  -0.077  -4.582  -0.022   0.646   1.318  -1.390  -0.154
    1.185  -0.576   1.951  -0.086   2.056  -0.693   1.696   0.094  -0.803  -1.066

    0.250  -1.296
    2.793  -0.937   3.047   1.370   2.322  -0.431  -2.079  -0.242  -2.107  -0.581
   -0.607  -2.577  -1.822  -0.879   1.623  -0.806  -0.057  -0.716  -1.628  -0.212
    1.740  -1.502  -0.786  -0.849   0.746   0.768  -0.134   0.456   2.114  -0.697
   -0.957  -2.311  -0.196  -0.087  -0.172   1.925   1.419   0.959   0.714   0.058
   -0.413   2.996  -0.596   0.423   0.471   1.227  -0.705  -4.054  -0.543   1.360
   -0.381  -0.465  -1.398  -1.409   1.129  -0.778   2.796  -0.645  -1.172   2.173
    2.735  -0.155  -2.197  -1.854  -0.169  -2.459  -0.373   0.154  -0.680   1.403
    1.266   1.054  -2.900  -1.744   0.459   0.154  -1.777   0.920   1.749   0.694
    0.981   2.077   1.276  -0.030  -3.244   0.036   1.076   1.406  -1.950  -0.615
    0.269   0.138   0.666  -0.585   2.216  -1.080   1.952  -1.448  -0.651  -2.020

    0.300  -0.599
    1.986  -0.787   3.266   2.398   2.481   1.520  -1.747   0.587  -2.303  -0.100
   -0.391  -1.990  -0.948  -2.506   0.574  -0.234   0.676  -0.476  -2.353   1.479
    1.855  -1.229  -0.537  -0.685   1.329  -0.185   0.845   1.182   2.344   0.148
    0.126  -2.903   0.739   0.365   0.451   2.477   1.609   0.659   0.971  -1.616
    0.141   3.313   0.128  -0.192   0.200   2.215  -1.053  -3.269   0.182   0.975
   -1.185  -2.437  -0.758  -1.379   0.700   0.024   2.501  -1.223  -1.502   2.312
    2.338  -0.561  -1.923  -1.956   0.385  -2.862   0.491   0.088  -1.406   1.117
    1.842   0.434  -3.353  -2.329  -0.600   0.425  -1.908   0.463   2.377   1.121
    0.795   0.695   1.049   0.816  -2.854  -0.531   1.432   1.280  -2.511  -0.202
   -0.247  -0.178   0.576  -0.477   1.887  -0.482   2.334  -0.345  -0.237  -2.033

    0.350  -0.192
    1.715  -1.064   2.820   1.183   3.237   0.949  -1.492  -0.256  -3.332  -0.273
    0.109  -2.113  -0.036  -1.630  -0.131  -1.043   0.996   0.697  -2.365   2.758
    2.083  -1.710  -0.107  -0.867   1.542   0.113  -0.038   0.678   2.000   0.113
   -0.051  -2.544   0.917  -0.563   0.220   1.749   1.672  -0.516   0.468  -2.881
    0.621   2.014   0.919   0.504  -0.545   2.214  -0.520  -2.685  -0.283   0.790
    0.918  -1.967  -0.732  -0.877  -0.664  -0.665   3.626   0.181  -1.640   1.983
    1.089  -1.145  -1.040  -2.227  -0.021  -3.094   0.694  -0.548  -1.130   0.604
    1.573  -0.700  -2.512  -2.814  -0.657   0.411  -1.727   0.546   1.184   1.228
    1.306   0.551   2.362   0.716  -2.964  -0.129   1.629   2.096  -2.364  -0.642
    2.132   0.183   0.961  -0.576   1.406  -0.574   1.776  -0.336  -0.972  -2.273

    0.400  -1.198
    0.768  -0.268   1.218   0.667   2.996  -0.008  -1.704  -0.771  -3.629  -1.011
    0.908  -1.340   0.776  -1.488   1.224  -2.144   1.238  -0.729  -2.269   2.663
    2.576  -2.286  -0.151  -1.496   1.070  -0.026  -0.276   0.611   2.010   0.390
    0.354  -2.464   0.935  -1.261   0.682   2.148   1.932  -1.384  -0.039  -1.219
   -0.770   1.054   0.908  -0.338   0.221   2.819  -0.523  -2.188  -1.619   0.815
    0.394  -1.689  -0.191  -0.896  -1.019  -0.561   2.721  -1.262  -1.507   0.665
    0.682  -0.282  -0.371  -2.257   0.288  -3.412   1.498  -0.366  -0.227   1.029
    1.493  -1.105  -2.069  -1.459  -0.759   0.768  -1.826   0.006   1.989   2.211
   -0.748  -0.280   2.871   1.224  -2.541  -0.833   1.008   1.289  -2.857  -0.899
    2.223  -0.395  -0.220  -1.995   0.489   0.408   1.041  -0.995  -2.105  -2.651

    0.450  -1.158
    1.681   0.087   0.400   0.298   1.643   0.956  -1.961  -0.029  -4.431  -2.131
    0.774   0.325  -0.363  -1.902   2.292  -2.233   0.886  -1.232  -2.286   2.564
    2.175  -3.802  -0.265  -0.564   2.786   0.865   0.188  -0.823   0.996  -0.895
    0.846  -2.728   1.260  -1.349   0.753   1.098   1.587  -1.027  -0.009  -0.352
   -0.775   2.183   0.165   0.729   1.596   3.406  -0.712  -2.223  -0.622   0.464
    1.269  -2.036   0.184  -0.031  -0.507  -0.134   3.017   0.204  -1.357   1.403
    0.962  -0.577  -0.547  -1.582   0.319  -3.531   2.033  -1.269   0.846   2.651
    0.327  -0.106  -1.919  -2.487   0.027   0.865  -1.968  -0.156   2.160   1.770
   -1.457  -0.412   2.958   1.557  -2.436  -1.160   1.166   1.686  -3.237  -0.517
    1.795  -0.327   0.216  -1.146   0.131  -0.216   2.034  -1.928  -1.648  -2.897

    0.500  -0.162
    1.283  -0.873   0.662   0.483   1.761   1.314  -0.988   0.122  -4.567  -1.559
    0.565   0.223   0.269  -1.399   1.599  -1.683   0.831   0.009  -1.638   2.006
    1.170  -3.512  -0.447  -0.895   2.533   1.526   1.067  -0.770   0.532  -0.459
    1.522  -1.188   1.110  -2.315   0.867   0.973   2.600  -0.157   0.428  -1.108
   -0.863   2.309   0.107   0.840   0.699   3.549  -1.005  -3.519  -0.223   0.737
    0.878  -2.301   1.495  -1.435  -0.568   1.353   2.942   0.351  -0.939   1.819
    1.050  -0.670  -1.748  -1.405   1.513  -3.500   3.110  -0.385   1.058   2.311
    0.238  -0.212  -2.408  -2.083  -0.315   1.915  -2.654  -1.004   1.481   1.960
   -0.236  -0.724   2.202   1.162  -2.237  -2.646   1.092   1.439  -3.192  -0.595
    0.241  -0.574   0.493  -1.036   1.920   0.217   2.377  -2.785  -1.040  -3.379

    0.550  -1.078
    1.478  -1.614  -0.168   0.867   1.597  -0.139  -0.847  -0.096  -5.141  -0.566
    0.352  -0.054   1.437  -1.838   1.883  -1.941   0.886  -0.641  -1.058   2.351
    1.115  -3.864  -0.533  -1.225   1.978   1.385   2.017   0.297  -1.093  -0.391
    1.062  -0.927   1.123  -1.236   0.209   0.103   1.846   0.416   0.779  -1.520
   -0.662   1.890  -0.600   0.932   0.362   3.899  -1.369  -4.331   0.077   1.258
    0.518  -2.497   1.543  -1.772  -0.333   2.216   2.402  -0.090  -1.265   1.311
    1.541  -1.023  -1.231  -1.723   2.317  -3.860   2.933   0.154   0.171   2.202
    0.799   0.006  -3.025  -2.159  -0.625   1.811  -3.148  -1.085   1.886   1.560
   -0.105  -0.352   2.127   1.235  -0.438  -2.239   1.834   1.586  -2.331  -0.087
   -0.615  -1.034   0.443  -1.440   3.653  -0.196   2.878  -3.663  -0.790  -3.726

    0.600   0.080
    1.961  -1.213   1.039   0.662   2.182  -0.333  -1.845  -0.817  -4.444  -0.548
    0.068   0.051   1.483  -2.315   0.459  -1.302   2.390  -1.944  -0.771   3.073
    2.261  -3.233   0.352  -1.328   1.800   0.739   1.813  -0.382  -1.564  -0.117
    2.375  -0.375   0.544  -1.452   1.170   0.902  -0.308   0.710   1.195  -0.560
   -1.378   0.850  -0.995   1.154  -0.784   2.887  -1.951  -5.284  -0.786   1.843
    0.279  -1.229   0.856  -1.386  -0.463   1.833   2.733   0.428  -0.767   0.758
    1.524  -0.426  -2.188  -2.240   2.262  -3.602   0.811  -0.268  -1.553   0.554
    0.292   0.114  -2.437  -2.616  -0.338   0.603  -3.088  -0.131   1.182   0.131
    0.741  -0.068   1.345   0.822   0.244  -1.290   0.653   1.163  -3.446   0.549
    0.169  -0.481   0.519  -1.140   2.907  -0.994   2.422  -3.898  -0.871  -2.453

    0.650   0.024
    1.743  -0.447  -0.411   1.003   2.771   0.169  -1.738  -1.254  -3.158  -1.771
   -0.330  -1.017   3.113  -1.743  -0.002  -1.088   2.722  -1.910  -0.094   2.817
    2.287  -2.076   0.262  -0.956   1.403   2.178   2.878  -0.764  -0.539   0.217
    1.522  -2.300   0.546  -0.471   1.308   1.359   0.496   1.692   0.807  -0.543
    0.877   0.689   0.201   1.685  -1.450   4.033  -1.191  -3.838  -1.204   1.680
   -0.705  -1.301   1.200   0.314  -0.150   1.931   1.369   0.569  -1.458   1.294
    1.774  -0.923  -1.858  -2.401   1.794  -2.778   0.729  -0.374  -1.222  -0.611
    2.221   1.050  -1.623  -1.876  -1.189  -0.429  -2.596   0.217   0.679   1.005
    1.433   1.161   1.009   0.020  -0.751  -0.638   0.763   1.680  -3.121   0.810
    0.218  -0.473  -0.744  -0.088   3.186  -1.018   2.015  -1.771  -1.151  -2.934

    0.700  -1.703
    1.365  -1.106  -0.042   1.208   3.848   0.018  -1.927  -2.057  -3.135  -1.601
   -0.424  -1.775   2.962  -1.930  -0.753  -1.623   2.812  -0.810  -0.499   2.784
    1.321  -1.064   0.215   0.006   0.641   2.084   2.860  -0.640  -1.680   0.755
    1.038  -2.506   1.430  -0.709   1.210   1.385  -0.105   2.069   1.277   0.141
    0.209   1.092  -0.128   0.676  -0.541   3.357  -0.612  -3.176  -0.687   1.886
   -0.401  -0.630   2.072   0.082  -0.897   1.786   0.954   0.244  -3.179   1.170
    1.639  -0.849  -0.873  -1.183   2.026  -2.068   0.724   0.036   0.749  -0.295
    2.368   1.155  -1.555  -1.321  -1.023   0.382  -2.389   0.051  -0.026   1.868
    0.937   1.807   0.061  -0.242  -0.040   0.259   1.008   0.378  -2.869   1.612
    1.211   0.073  -1.244   1.163   5.069  -1.500   2.094  -2.407  -1.404  -2.510

    0.750  -1.065
    0.917  -0.981   0.030   1.058   3.166   0.568  -1.521  -2.124  -1.663  -1.711
   -0.817  -0.989   1.293  -1.601  -0.585  -1.829   1.858   0.197   0.365   1.526
    1.758  -1.952   1.478   0.404   1.603   3.185   2.866  -1.019  -2.798   0.376
    0.925  -3.034   0.517  -1.604   1.895   0.933   0.046   1.291   1.465   0.713
    0.123   0.215  -0.116   0.712  -0.350   2.613  -0.553  -2.347  -0.661   1.869
    1.045   0.003   1.645  -0.540  -1.308   2.190   2.458  -0.898  -4.173   0.646
    1.845   0.110  -0.690  -0.665   2.411  -2.464   1.198   0.896   0.964  -0.733
    1.990  -0.341  -2.824  -1.004  -0.991   0.472  -2.126   0.377   1.039   2.841
    1.854   2.314   0.796   0.818  -0.917   1.487   0.234   0.827  -2.665   2.723
    0.684  -0.377  -1.224   0.831   2.774  -1.290   1.422  -1.961  -1.966  -3.057

    0.800  -2.170
    0.605   0.006   0.130   0.653   2.415   0.446  -0.486  -1.612  -2.755  -1.472
   -0.108  -0.321   0.539  -1.252  -0.426  -2.964   1.851  -0.228   0.534   1.950
    2.924  -2.398   1.506   0.992   1.293   1.435   2.889   1.316  -2.744   0.380
    1.836  -3.200  -0.003  -1.257  -0.205   1.692   0.645  -0.014  -0.138   0.563
    0.154  -1.280   0.178   2.021   0.755   1.865  -0.329  -2.119  -0.757   1.058
    1.743  -0.492   1.703  -0.790  -0.984   2.078   1.397  -0.789  -3.528   0.001
    0.470   0.411   0.250  -0.542   1.218  -1.355   1.815   0.911   0.444  -0.992
    1.081  -0.284  -2.360  -2.774  -0.430   0.846  -1.586   0.538   0.397   2.032
    2.522   1.712   1.285   0.727  -1.844   1.013   0.607   0.963  -2.187   2.189
    1.157   1.034  -0.447  -0.410   2.740  -1.082   2.372  -2.305  -2.631  -2.257

    0.850  -0.437
    0.823   0.509   0.079   0.524   2.497   1.306  -0.011  -2.509  -2.311  -1.617
    0.807  -1.211   0.214  -0.381  -0.570  -2.508   1.241  -1.043   0.971   1.962
    3.592  -3.029   1.556   0.108   1.833   0.429   2.453   0.564  -0.940   0.983
    1.957  -3.050   0.655  -1.650  -1.328   1.405  -0.517   0.619  -0.724   0.276
   -1.334  -0.210   0.789   1.625  -0.566   2.962  -0.090  -2.561  -0.945   1.436
    1.492  -0.690   2.158  -0.113   0.239   2.259   1.186  -2.065  -4.246   2.033
    0.058   0.305   0.111  -1.746   2.121  -0.835   1.939   1.328  -0.289  -0.789
    2.126   0.874  -1.520  -2.013  -1.327   0.468  -1.899  -0.624   0.234   2.049
    2.285   2.770   0.571   0.726  -0.220  -0.319   0.468  -0.255  -2.034   0.882
    2.191   0.150  -0.674  -1.695   3.368  -0.920   1.675  -3.063  -1.714  -3.031

    0.900  -0.335
    1.042   0.289   0.406   0.153   2.241   1.547  -0.304  -0.775  -2.649  -1.350
    1.644  -0.325   1.399  -0.771  -0.172  -2.505   0.683   0.868   1.435   2.784
    2.873  -2.240   0.296   0.318   1.280  -0.084   2.893   0.679   0.868   1.496
    1.905  -2.473   1.641  -1.029  -1.310  -0.533  -0.368   0.206  -1.194   0.368
   -0.381  -0.320   0.854   1.672  -0.209   3.049   0.662  -2.105  -1.221   1.269
    0.776  -0.986   2.650  -0.279   0.090   2.780   0.878  -1.667  -4.563   2.383
    0.517   0.689   0.050  -2.666   1.673  -2.643   1.863   1.602  -0.119  -0.320
    1.963   1.479  -1.294  -1.617  -1.588   0.792  -1.855  -1.008  -0.177   1.473
    1.023   1.756   0.599   1.573  -0.572  -0.540   0.179  -0.157  -2.538   0.929
    1.405  -0.185   0.032  -0.783   2.871  -1.558   0.918  -3.185  -0.710  -2.003

    0.950   1.249
    0.421   0.515  -0.157  -0.658   1.759   2.080  -1.092  -1.215  -3.120  -1.038
    2.421  -1.019   0.961  -0.369  -0.829  -2.569  -0.487   1.243   0.078   1.807
    4.785  -2.211   0.230  -1.268   0.523  -0.563   3.604   1.430   0.852   1.930
    2.667  -1.255   1.300   1.655  -1.034  -0.011  -0.586   0.471  -1.357   1.976
    0.132  -0.573   1.060   1.471  -0.794   1.774   0.978  -2.144  -1.474   2.010
    0.382  -0.641   2.763  -0.615  -0.122   3.326   1.504  -1.759  -4.189   1.163
    0.404   0.592   0.552  -2.883   1.183  -2.452   1.084   1.423  -0.281   0.374
    1.635   1.387  -0.764  -1.006  -2.057   0.525  -2.453  -1.007   0.013   1.410
    0.575   0.718   1.721   1.699  -1.289  -0.277   1.102   1.154  -2.485   0.696
    1.130   0.179   0.056  -0.409   2.937  -1.091   0.207  -3.624  -0.016  -1.596

    1.000   1.209
   -0.524   0.339  -0.263   0.158   1.640   1.672  -1.990  -2.090  -4.394  -1.433
    1.151  -0.864   0.957  -0.179   0.721  -3.552  -0.366   2.506  -1.623   1.474
    4.618  -2.864   1.471  -0.799   1.508  -1.704   2.081   0.470   0.722   2.448
    1.586  -1.099   1.196   1.590   0.274   0.859  -0.404  -0.139  -1.761   1.657
   -0.334   0.685   0.854   1.823  -2.253   0.175   1.522  -2.917  -2.148   2.857
    0.535  -0.414   1.335  -1.117  -0.818   1.248   1.633  -2.065  -2.973   0.419
    1.142   1.156  -0.170  -3.519  -0.084  -1.538   0.970   2.049  -1.230   0.397
    1.697   1.444  -0.298  -1.293  -1.640   1.164  -3.441  -1.261  -0.961   2.106
   -0.212   1.073   2.501   1.151  -1.232  -0.048   1.794   1.207  -1.264   2.469
    1.157   0.720  -0.550  -0.922   3.290  -0.354  -0.914  -5.274   0.576  -2.125

    1.050   0.467
   -1.400  -0.576   0.214   0.420   2.210   2.156  -2.591  -1.883  -4.045  -2.119
    1.750  -1.648   1.992  -0.616  -0.252  -2.535   0.732   3.103  -1.557   2.679
    4.138  -2.876   1.045  -0.644   0.172  -1.059   0.561   0.014   1.469   2.128
    0.537  -0.906   1.740   0.712   0.108   1.575   0.692  -0.529  -2.459   1.576
   -1.111  -0.011   0.925   1.808  -1.705  -0.105   0.362  -2.568  -1.768   2.762
    2.034  -2.000   0.955  -0.978  -1.366   0.963   0.422  -2.411  -2.163   0.676
    1.420  -0.159   0.447  -4.016   0.336  -2.408   1.095   2.564  -0.670  -0.320
    1.851   1.173  -0.168  -2.045  -2.518   1.928  -4.261  -2.100  -0.681   2.505
    0.293   1.541   2.511   1.508  -1.241   0.422   2.161   1.021  -1.318   2.255
    2.428   1.324  -0.592  -0.455   2.078  -1.057  -0.367  -4.235   0.155  -2.052

    1.100   1.708
   -2.446  -0.001  -0.587  -0.775   2.285   2.522  -1.408  -2.065  -3.092  -1.816
    2.092  -1.503   1.866  -1.116  -0.450  -1.741   0.131   0.837  -1.720   2.084
    3.231  -1.936   0.888  -0.922  -0.546  -0.494   1.583   0.746   1.616   2.076
    0.384  -1.316   2.027   0.696  -0.715   1.449   0.719  -0.895  -2.477   1.285
   -1.247   1.568   0.362   1.500  -1.007  -0.279   1.168  -2.313  -1.346   3.362
    2.580  -1.321   0.882  -1.460  -1.265   1.081   1.845  -2.696  -0.701   0.975
    2.057  -0.090   1.473  -2.825   0.648  -1.807   0.407   3.128   0.109  -0.104
    0.801  -0.027   0.174  -1.344  -1.919   2.544  -2.582  -2.767  -1.611   2.749
    0.994   0.559   1.712   2.016  -0.753   0.823   1.854   1.322  -0.996   0.774
    2.042   1.764   0.540   0.163   1.761  -1.084  -0.033  -4.767  -0.426  -0.632

    1.150   1.148
   -1.788  -0.051  -0.657  -1.447   1.226   2.154  -1.328  -1.982  -2.454  -0.742
    2.577  -2.070   1.626  -0.784   0.149  -1.326  -0.406   0.635  -1.582   1.729
    2.431  -2.084   2.476  -0.467   0.443   0.397   0.595   1.049   2.225   3.742
    0.392  -1.035   2.979   1.340  -1.453   1.044  -0.131  -0.301  -0.950   2.333
   -1.767   0.870  -0.620   1.290  -1.101   0.513   0.432  -2.128  -0.489   2.773
    1.620  -1.207   2.658  -1.455  -0.548   1.663   1.741  -2.216  -1.416   1.106
    2.308   0.720   1.322  -1.447   0.507  -0.969   0.097   2.680   0.412  -0.509
    2.118  -0.069  -0.698  -0.597  -1.002   2.013  -1.433  -3.455  -1.910   3.016
   -0.051   0.542   2.942   1.669  -0.364  -0.115   1.112   0.989  -0.943   0.460
    1.847   2.968   1.145   0.201   1.157  -1.729   0.467  -2.785   0.305   0.761

    1.200   1.697
   -1.989  -0.451  -1.050  -1.003   0.865   2.646  -0.966  -2.615  -1.345   0.321
    1.713  -2.209   2.398  -0.776  -0.526  -0.370   0.029   2.170  -1.148   1.230
    2.135  -2.272   1.273  -0.238   0.907   0.828   0.345   1.783   1.662   3.315
    0.796  -1.999   2.111   1.476  -1.557   1.256  -0.430   0.037   0.001   2.099
   -2.100   0.455  -0.923   1.252  -0.916   0.582   0.467  -1.907   0.203   1.703
    2.603  -0.203   2.469  -1.460  -2.302   2.446   1.169  -4.392  -1.093   0.709
    2.804   1.612   0.851  -1.094  -0.981  -1.949   0.621   0.919   0.527  -1.282
    1.088  -0.789  -1.813  -0.635  -1.045   2.634  -1.606  -3.008  -2.040   3.129
    0.175   0.230   2.509   1.708  -1.819  -1.728   0.201   0.643  -1.488   1.187
    0.214   2.402   1.754   0.179   0.213  -2.193   0.605  -2.759  -0.201  -0.153

    1.250   1.424
   -0.863  -0.887  -1.315   0.236  -0.170   1.791  -0.046  -2.494  -1.901   0.044
    1.221  -2.327   3.435  -1.042  -1.754   0.038  -0.795   1.127  -0.899   1.524
    0.997  -2.597   0.400  -0.864   0.465  -0.669   0.593   1.026   1.231   2.561
    1.225  -2.092   1.259   2.890  -1.387   1.725  -0.427  -0.658  -1.168   2.613
   -1.291   0.714   0.518  -0.234  -0.026   0.674   0.361  -1.343   0.958   2.720
    1.942  -0.103   2.000  -2.051  -1.692   1.303   0.695  -5.329  -0.936  -0.073
    2.579   1.467   0.860  -0.542  -0.431  -1.320  -0.645   1.532   0.418  -0.427
    0.002  -0.955  -1.980  -0.432  -2.709   3.188  -1.868  -1.804  -2.339   1.538
   -0.170   0.198   1.625   1.185  -1.482  -0.661  -0.574   0.935  -2.702   0.908
   -0.202   1.788   1.963  -0.618   0.776  -2.830   0.147  -2.367  -0.084  -1.413

    1.300   1.886
   -0.805  -1.591  -1.984   0.972   1.054   1.872   0.876  -2.786  -1.528   0.350
    2.811  -3.138   3.335  -0.409  -1.047   0.386  -1.805   1.748   0.673   1.310
    1.165  -2.605   1.821  -1.083   0.505   0.499  -0.339  -0.034   0.914   2.126
    1.957  -3.720   1.384   2.598  -0.630  -0.016  -0.540  -0.163  -1.242   2.029
   -0.703   0.050   0.976   0.175  -0.293   0.796  -0.595  -1.056   0.377   3.251
    1.245  -1.211   1.249  -2.679  -0.970   0.816   1.904  -3.303  -1.124  -0.466
    2.085   2.015  -0.091   0.976   0.647  -0.852  -1.018   2.303  -0.122  -0.425
    0.781  -0.301  -2.417  -0.968  -2.130   3.352  -1.016  -2.617  -1.551   1.669
   -0.713   0.176   1.835   0.546  -1.089  -0.032   0.889   1.189  -2.632   0.215
   -0.385   1.469   1.292  -0.734   0.848  -3.445  -0.406  -1.339  -0.255   0.234

    1.350   2.353
   -0.766  -1.439  -3.188   1.739   1.600   1.918   1.196  -2.318  -0.592   0.126
    3.165  -2.881   2.734  -0.873  -0.236  -0.535  -0.763   0.795   2.121   1.038
    0.955  -1.431   2.219  -1.219   2.336  -0.698  -1.071  -0.158   1.435   2.156
    0.982  -3.713   0.089   1.731  -0.088  -1.950  -0.468  -0.412  -1.982   2.595
   -0.601   0.117   1.129   1.687   0.955   0.870  -1.533  -0.861  -1.941   2.988
    0.839  -0.243   0.259  -2.091  -1.194   1.262   0.393  -4.079  -1.472  -0.509
    1.394   0.820  -0.552   0.412   0.483  -1.182  -1.293   1.580   0.492  -0.903
    0.539  -0.310  -1.483  -0.568  -2.191   2.655  -1.628  -2.530  -1.320   0.552
   -0.748  -0.471   0.584   0.371  -1.271   1.128   1.069   0.441  -2.637   0.396
   -0.651   1.025   2.332   0.075   0.538  -3.612  -1.021  -1.850  -0.415   0.475

    1.400   1.932
   -0.231  -1.125  -3.349   0.130   1.737   1.468   0.331  -2.147  -0.395  -0.963
    3.021  -2.551   2.537  -0.122  -1.828  -0.191  -0.999  -0.204   2.645   2.398
    1.265  -1.441   3.041  -1.150   2.436   0.386  -0.941   0.421   1.187   3.127
    1.792  -3.615   0.483   1.026  -1.332  -0.870  -0.726   0.133  -1.677   3.565
    0.747  -0.563  -0.325   1.383   0.295   0.308  -2.496  -0.900  -2.091   2.717
    0.885  -0.340   0.767  -1.067  -0.849   0.011   0.097  -5.034  -0.884   0.297
    1.906   0.911  -0.359   0.930  -0.466  -0.744  -1.831   2.258   0.884  -1.210
    1.485  -0.583  -2.093  -0.739  -2.657   1.677  -0.038  -1.874  -1.373   0.026
   -0.190  -0.289  -0.401   1.066  -0.803   2.331   0.065  -0.488  -2.166  -0.036
   -0.436  -0.084   1.987  -0.285   0.245  -2.340  -1.762  -2.420  -0.443   0.032

    1.450   1.703
    0.035  -1.029  -3.077  -1.023   3.170   0.973   0.303  -0.992  -1.290   0.003
    3.337  -1.267   2.919   0.182  -2.622   0.117  -0.365  -1.014   2.552   3.076
   -0.145  -0.495   3.073  -1.394   1.352   0.704  -0.973   0.490   1.125   3.446
    1.083  -2.538   1.220   0.506  -0.965  -0.885  -0.412  -0.840  -1.011   3.598
   -0.293  -0.303  -0.638   0.976   0.522   0.236  -2.484  -1.690  -1.576   3.431
    1.573  -1.254   1.353  -0.947  -0.913   0.088  -0.306  -3.745  -0.541   0.833
    2.817   0.754  -0.588   1.098   0.882   0.240  -1.516   0.988   0.231  -1.746
    1.667  -1.033  -0.351  -1.605  -1.389   1.261  -0.401  -1.517  -1.026   0.611
    0.886  -0.084   0.237   0.728   0.009   1.947  -0.733   0.918  -2.849  -0.628
   -0.195  -1.847   1.454  -0.128   0.427  -2.091  -2.538  -0.926  -0.686  -0.842

    1.500   1.323
    0.794  -0.651  -1.717  -0.384   2.223   0.589  -0.828   0.513  -1.279  -1.067
    1.302  -1.437   2.957   0.582  -2.866  -0.504  -0.439  -1.155   2.859   2.823
   -0.456  -0.311   2.611  -0.289   1.741   1.796  -0.637   0.246   1.431   1.160
   -0.086  -2.215   0.828   0.508   0.272  -0.858  -0.097  -1.108  -1.441   3.237
    0.443  -1.480   1.089  -0.036   0.493  -0.570  -1.902  -1.421  -2.130   3.828
    0.703  -0.947   2.491  -2.013  -0.840  -0.211  -0.841  -3.379   0.761   1.555
    2.144   1.736  -0.039   0.895   0.605   0.151  -2.256   1.106  -0.870  -1.299
    1.744  -0.342   0.261  -1.983  -1.660   1.129  -1.214  -1.852  -0.969   0.811
    0.895  -0.483   0.098   1.174   0.614   2.548  -0.656   0.080  -2.829  -0.311
    1.422  -3.251   1.140   0.673   0.261  -1.569  -1.908  -1.718   0.309  -2.294

    1.550   0.698
   -0.809   0.144  -1.611  -0.619   2.711   1.238   0.204   0.911  -0.753  -0.559
    1.742  -1.002   3.073   2.410  -2.401  -0.261  -1.366  -0.705   0.997   2.410
   -0.137  -0.467   2.790   0.877   1.650   1.518  -1.693   1.187   0.927   1.217
    0.629  -1.996  -0.148   0.223   0.202   0.192   0.784  -0.915  -1.165   3.261
   -0.112  -1.217   1.692  -1.028   0.902  -0.608  -1.239  -2.292  -0.801   4.332
    1.791  -1.561   1.560  -1.932   0.068  -1.208  -1.114  -4.520  -0.542   0.939
    3.055   1.084   0.129   1.135   0.517  -0.730  -1.547   1.305  -0.282  -0.828
    1.779  -0.282  -1.769  -1.025  -1.273   1.741  -2.185  -1.893  -0.341   1.312
    1.582  -0.272  -0.539   1.637   0.999   2.417  -1.517   0.637  -1.528  -0.690
   -0.536  -1.959   0.320  -0.221   0.274  -2.418  -1.337  -0.668   1.069  -2.344

    1.600   1.457
   -0.190   0.090  -3.061  -1.341   1.378   2.705  -0.150   0.442   0.429  -0.868
    1.870  -1.131   1.845   2.187  -1.776   0.783  -2.007  -0.923   0.204   1.821
   -0.765  -0.311   2.857   0.426   1.727   0.836  -1.858   0.805   1.344   1.410
   -0.200  -1.793   0.114   0.292   0.886   0.445   1.446  -1.242  -1.720   4.055
   -0.233  -1.538   1.920  -0.298   0.691  -0.630  -0.732  -1.380  -1.334   3.371
    0.913  -2.007   1.262  -1.598  -0.828   0.094  -0.137  -4.244   0.757   0.589
    2.662   0.919  -1.291   1.411   0.120  -0.487  -1.799   0.214   0.484  -0.802
    1.102   1.716  -1.420  -1.634  -0.192   1.664  -1.097  -1.923   0.324   1.567
    0.718   0.019  -1.456   2.253   1.257   1.377  -0.299   0.281  -1.674  -1.104
   -1.208  -2.315   1.789  -0.085  -0.220  -3.047  -1.006   0.049   0.556  -2.681

    1.650   2.664
   -1.043  -0.506  -3.441  -2.106   1.813   0.812   0.289   1.567   0.993  -1.197
    2.661  -0.570   2.274   3.229  -2.581   1.540  -2.880  -0.173   1.066  -0.130
    1.249   0.254   3.751   0.825   1.275   0.092  -0.814   1.138   0.922  -0.079
   -0.345  -2.528  -0.327  -0.098   1.248  -0.348  -0.177  -1.161  -2.873   2.662
    0.444  -1.733   1.871   1.113   1.062  -0.057  -0.471  -1.190  -0.888   3.502
   -0.123  -1.279   0.669  -0.950  -0.210   0.386   1.002  -3.012   0.847   0.599
    2.842   1.065  -0.254   1.469   0.840  -0.330  -1.662   1.052   0.445  -1.503
    1.577   1.508   0.212  -0.431  -0.574   1.225  -1.864  -1.469   1.085   1.974
    0.973   1.724  -1.046   3.974  -0.073   1.816  -1.086  -1.312  -1.117  -2.187
   -0.829  -1.718   2.239   1.025  -0.598  -2.727  -1.170   0.113  -0.016  -1.177

    1.700   2.480
   -0.987  -0.513  -3.457  -1.945   2.987   1.532   0.201   1.511   0.297  -1.171
    1.480  -0.233   2.313   2.867  -1.968   0.693  -0.878  -0.019   1.766  -0.970
    0.510   0.267   3.685   0.509   1.600   0.846  -0.931   0.719   1.092   0.389
   -0.531  -2.279  -0.576   0.933   0.114  -0.365   0.130  -1.005  -2.902   1.712
    0.156  -1.170   1.894  -0.184  -0.054   0.713   0.340  -1.182  -0.850   2.798
   -1.077  -1.257   0.257  -0.223  -0.320   0.654   0.528  -2.453   1.159   0.614
    2.412   0.549  -0.422   1.343   0.842  -1.882  -1.422   1.865   0.666  -1.182
    3.159   1.697   0.001   0.746  -0.800   1.943  -1.699  -1.703   0.322   2.541
    2.305   1.945   0.268   3.719  -0.234   1.272  -1.166  -1.552  -0.409  -3.443
    0.152  -1.371   1.856   0.728  -1.154  -1.722  -1.495  -0.154   1.248  -0.536

    1.750   1.418
   -1.134  -0.903  -3.349  -1.569   2.116   0.375  -0.319   1.319   0.842  -0.626