
This full-field turbulence file was generated by TurbSim (v1.40, 12-Sep-2008) on 27-May-2021 at 12:56:26.

 | u-comp |  Y  x  Z  | Grid Resolution (Y x Z) | Time-step | Hub Elev | Mean U |
            10    10     15.556     15.556          0.050      80.00      5.00

 Z Coordinates (m):
  -70.000 -54.444 -38.889 -23.333  -7.778   7.778  23.333  38.889  54.444  70.000

 Y Coordinates (m):
  -70.000 -54.444 -38.889 -23.333  -7.778   7.778  23.333  38.889  54.444  70.000

    0.000   3.109
    5.582   6.386   6.841   6.455   7.264   6.865   5.446   4.565   5.137   4.475
    3.901   4.443   6.921   5.925   6.789   5.251   4.502   4.040   4.977   6.497
    3.802   4.311   2.662   3.189   6.520   3.569   5.582   4.665   5.256   4.084
    6.752   3.748   3.486   6.752   3.769   4.587   5.994   5.843   3.709   2.205
    8.448   7.107   6.541   2.074   4.247   3.591   2.066   3.847   2.131   4.390
    5.429   6.106   3.508   3.990   2.673   3.740   5.199   3.085   3.887   5.135
    4.054   5.985   6.774   2.378   4.962   3.899   7.166   3.421   6.697   6.149
    5.336   2.966   2.025   2.008   5.373   2.373   3.999   5.087   4.463   2.789
    4.084   0.638  -1.505   2.047   2.945   1.391   3.994   3.035   2.720   3.263
    0.459   0.612   1.621   0.959   0.981   2.199   1.878   1.627   0.990  -0.085

    0.050   3.169
    5.319   6.334   7.104   6.475   7.567   6.872   5.444   4.826   4.886   4.016
    4.089   4.568   6.406   5.792   6.382   5.566   5.108   3.714   5.217   6.522
    3.882   4.600   2.721   2.986   6.002   3.460   5.611   4.947   5.309   4.475
    7.067   4.061   3.362   6.388   3.433   4.408   6.237   5.607   3.459   2.232
    8.603   7.109   6.597   2.017   3.940   3.358   1.900   3.981   2.731   4.344
    5.520   6.001   4.342   4.360   2.714   4.065   5.407   3.333   3.959   5.429
    3.533   5.841   7.061   2.840   4.740   4.145   7.372   3.581   6.849   6.029
    4.977   3.037   2.235   2.167   5.535   2.323   3.892   5.265   4.343   2.736
    3.918   0.249  -1.420   1.763   3.020   1.447   3.989   3.170   2.289   3.595
    0.696   0.792   1.409   0.854   0.846   2.297   1.702   1.678   1.211   0.247

    0.100   3.079
    5.650   6.000   6.884   6.539   7.116   6.604   5.134   4.704   5.212   3.888
    4.303   4.797   6.596   5.885   6.189   5.597   5.373   3.912   5.476   6.693
    3.990   4.005   2.946   3.250   6.058   3.913   5.917   4.907   5.095   4.961
    7.154   3.941   3.581   6.429   3.372   4.860   6.700   5.816   3.581   2.385
    8.608   7.260   6.564   2.245   3.644   2.977   1.759   4.341   2.702   4.060
    5.464   5.822   3.982   4.649   2.441   4.718   5.196   3.649   4.180   5.234
    4.298   5.561   7.058   2.809   5.014   4.608   7.198   3.586   6.947   5.891
    4.709   2.727   2.497   2.093   5.372   2.020   3.735   5.404   4.226   2.380
    4.098   0.572  -1.268   1.767   3.288   1.087   3.776   3.415   2.190   4.170
    0.471   0.728   1.534   1.146   1.321   2.280   1.727   1.695   1.139   0.188

    0.150   3.491
    5.349   6.609   7.172   6.831   7.830   6.477   5.083   4.863   5.261   3.557
    4.230   4.937   6.486   5.875   6.236   5.622   5.399   4.368   5.352   6.613
    4.460   4.084   3.219   3.351   5.984   4.319   6.220   4.413   5.487   5.253
    6.722   3.754   3.987   6.389   3.339   4.965   6.786   5.323   3.274   2.623
    8.635   7.639   6.513   2.527   3.483   3.203   2.173   3.886   3.035   4.260
    5.307   5.899   3.683   4.527   2.083   4.726   4.944   3.689   3.645   5.886
    4.221   5.737   6.394   2.224   5.158   4.539   7.468   3.624   6.563   6.220
    4.433   2.652   2.024   2.457   5.341   2.266   3.912   5.491   4.388   2.749
    3.332   0.441  -1.258   1.790   2.761   1.347   3.949   3.522   2.180   3.521
    0.706   0.939   1.119   0.771   1.296   1.784   1.327   1.234   0.905   0.800

    0.200   3.273
    5.233   6.460   7.328   6.837   7.584   7.317   4.841   4.838   5.098   3.218
    3.936   4.720   6.111   5.983   6.134   5.824   5.642   4.132   4.865   6.662
    4.621   3.783   3.099   3.527   6.062   4.934   6.028   4.927   5.213   5.235
    6.576   3.734   4.266   6.670   3.552   4.625   6.650   5.244   3.042   3.155
    8.395   7.274   6.819   2.367   3.640   2.845   2.412   4.008   2.686   4.035
    5.691   6.411   3.616   4.717   2.268   4.625   5.297   3.944   3.614   5.634
    4.019   5.764   6.416   1.934   4.689   4.236   7.188   3.672   5.864   6.378
    4.423   2.532   1.712   2.443   5.407   2.048   4.235   5.353   4.256   2.789
    3.306   0.160  -1.709   2.342   3.025   1.595   3.584   3.441   2.203   3.958
    0.354   1.029   1.101   0.744   1.215   1.458   0.986   1.354   1.119   0.451

    0.250   3.570
    5.070   5.626   7.100   6.856   7.694   7.206   4.804   4.740   5.384   3.092
    3.687   4.918   5.970   5.978   6.542   5.626   5.605   4.176   4.530   6.258
    4.591   3.615   3.909   3.772   5.758   5.336   5.871   4.838   5.149   4.691
    6.804   3.721   4.965   6.769   4.067   4.915   6.106   5.212   3.365   2.759
    7.798   7.424   6.251   3.070   3.623   3.460   2.413   4.057   2.395   3.764
    5.760   6.143   3.659   4.720   2.136   4.737   4.584   3.849   3.512   5.749
    4.114   5.568   7.057   2.269   4.702   3.982   6.787   4.053   5.473   6.434
    4.231   2.190   2.438   2.599   6.009   2.042   4.061   5.613   4.691   2.406
    3.070   0.032  -1.892   2.370   3.247   1.387   3.585   3.222   2.102   3.910
    0.182   0.936   0.911   1.063   1.204   1.461   0.941   1.280   0.692   0.260

    0.300   3.674
    4.978   5.751   7.259   6.466   7.172   7.112   4.546   4.897   5.519   3.496
    3.437   4.731   5.579   5.846   6.334   6.125   4.701   3.965   4.826   6.269
    4.692   3.458   3.943   3.645   5.961   4.762   6.273   4.489   5.524   4.773
    6.597   4.071   5.018   6.823   3.663   5.086   5.973   5.368   3.382   2.795
    7.973   7.226   5.846   3.248   3.676   3.331   2.202   4.150   2.614   3.919
    5.731   6.374   3.843   4.570   1.997   4.596   4.712   3.506   2.937   5.739
    3.986   5.931   7.130   2.558   4.279   3.869   6.983   3.860   5.537   6.167
    4.362   2.913   2.386   2.550   5.806   2.256   4.280   6.000   4.499   2.052
    2.471   0.314  -1.911   2.121   2.946   1.409   3.719   3.051   2.008   3.523
    0.203   1.109   0.678   0.685   1.213   1.812   0.984   1.192   0.341   0.346

    0.350   3.504
    4.766   6.235   7.391   6.475   6.869   7.306   5.028   4.135   5.793   3.379
    3.766   4.494   5.357   6.169   6.180   6.320   5.118   4.114   5.221   6.021
    4.404   3.710   3.519   3.765   5.766   5.308   6.285   4.253   5.753   4.945
    6.377   4.561   4.974   6.669   3.472   4.720   6.061   4.796   3.410   2.922
    8.559   7.238   6.009   3.329   3.421   3.562   2.478   4.311   2.501   3.969
    5.452   5.778   3.762   4.471   1.930   4.388   4.557   3.085   2.543   5.596
    4.141   5.925   6.544   2.605   4.124   4.017   7.283   3.724   5.851   5.909
    4.215   2.776   2.539   3.454   5.682   2.380   4.305   5.846   4.561   2.077
    2.621   0.416  -2.398   2.455   2.471   1.150   3.082   3.243   2.317   3.697
    0.193   1.222   0.777   0.729   1.406   1.524   1.318   1.227   0.343   0.253

    0.400   3.514
    4.909   6.378   7.564   6.063   7.130   6.890   5.715   3.897   5.686   2.956
    4.029   4.697   5.689   6.145   6.051   6.780   4.815   4.038   5.203   5.706
    4.338   3.871   3.486   3.654   5.398   4.662   5.659   4.193   5.510   4.920
    6.786   4.273   4.823   6.946   3.166   4.581   5.946   4.941   3.298   2.872
    8.389   7.733   5.962   3.116   3.264   3.453   2.458   4.879   2.887   3.841
    4.966   5.600   3.501   4.944   2.044   4.759   4.502   3.134   2.728   5.248
    4.284   5.692   6.745   2.545   3.941   4.203   7.634   4.167   6.518   5.826
    3.812   2.778   2.233   3.566   6.017   2.402   4.399   5.995   4.412   2.040
    2.586   0.500  -2.314   2.619   2.530   1.101   3.498   3.754   1.851   4.103
   -0.066   1.451   0.572   0.716   1.068   1.359   1.870   1.471   0.315   0.658

    0.450   3.337
    4.649   6.150   7.701   5.888   7.729   6.833   5.697   4.000   5.209   3.305
    4.151   4.886   5.911   6.073   5.961   6.758   5.008   4.210   5.217   5.706
    4.421   3.519   3.296   2.947   5.176   4.684   5.420   3.854   5.059   4.724
    6.048   4.449   5.134   6.570   3.131   4.622   5.808   4.882   3.101   2.734
    8.124   7.635   6.325   3.315   2.720   3.372   2.344   4.576   3.109   3.900
    4.780   4.914   3.260   5.324   1.888   4.863   4.592   3.418   2.719   4.813
    4.092   5.421   6.401   2.545   3.627   4.271   7.489   3.936   6.362   5.444
    4.216   2.332   1.925   3.231   5.687   2.631   4.674   5.407   4.733   2.556
    2.614   0.523  -2.193   2.238   2.915   1.318   3.779   3.882   2.009   4.241
    0.295   1.941   0.587   0.894   1.412   0.763   1.830   1.821   0.373   0.557

    0.500   3.402
    4.865   5.654   7.832   5.612   7.877   6.847   5.558   4.027   4.928   3.306
    4.001   4.713   5.831   6.101   6.038   6.940   5.311   3.719   5.237   5.817
    4.452   3.435   3.399   3.591   5.344   4.345   5.539   3.890   5.214   4.695
    5.627   4.944   5.104   6.732   3.312   4.733   6.081   5.188   3.089   3.187
    8.464   7.888   6.767   3.213   2.728   3.620   2.709   4.535   3.387   3.795
    4.897   5.225   2.874   5.429   1.912   5.074   4.709   3.371   2.681   4.531
    4.091   5.124   6.080   2.186   3.129   3.944   6.761   3.734   6.156   5.844
    4.436   1.862   2.232   3.167   5.535   2.471   4.184   4.835   4.675   2.400
    2.546   0.111  -1.930   2.666   3.376   1.164   3.536   3.619   2.374   4.392
    0.127   1.532   0.713   1.049   1.556   0.907   1.971   2.103   0.439   0.136

    0.550   3.093
    5.139   5.514   7.718   5.671   8.248   6.752   5.816   4.440   5.010   3.318
    4.094   4.315   5.824   6.032   5.852   7.115   5.147   3.627   4.793   5.413
    4.397   2.856   3.320   4.254   5.448   3.984   5.693   4.044   4.973   4.759
    5.960   4.932   4.660   6.340   3.323   4.479   6.017   5.331   2.950   2.945
    8.381   8.172   6.639   3.309   2.572   3.433   2.766   4.019   3.321   3.652
    4.509   5.313   3.064   5.639   2.088   4.989   4.830   3.112   2.708   4.845
    4.202   4.808   6.057   2.162   3.198   4.013   6.705   3.750   6.076   6.330
    4.383   2.090   1.660   3.582   5.348   2.136   4.190   4.998   4.600   2.645
    2.907  -0.185  -1.679   2.872   3.429   0.813   3.849   3.708   2.362   4.157
   -0.108   1.474   1.167   1.124   1.437   1.254   2.174   1.786   0.253  -0.420

    0.600   3.168
    5.128   5.166   7.870   5.304   7.929   5.968   5.734   3.938   5.385   3.035
    4.027   3.988   5.962   6.431   6.179   7.559   5.226   4.000   4.705   5.893
    4.132   2.914   3.378   4.257   5.373   4.250   5.537   4.220   4.828   4.658
    5.764   4.848   4.665   6.166   3.448   4.775   6.389   5.106   3.357   2.816
    8.640   7.711   5.770   3.024   2.987   3.289   2.410   3.634   3.182   3.765
    4.689   5.559   3.084   5.671   2.155   4.817   5.155   3.573   2.110   4.675
    4.009   4.861   6.393   2.330   3.844   4.396   6.637   3.201   5.861   5.777
    4.523   1.595   1.476   3.605   5.180   2.047   3.642   5.243   4.669   3.078
    2.814   0.063  -1.905   2.757   3.090   0.673   3.584   3.307   2.400   4.191
    0.260   1.440   1.637   0.993   1.647   1.354   1.980   1.653   0.290  -0.326

    0.650   3.028
    5.306   5.124   7.935   5.322   7.149   5.740   5.666   3.734   4.644   2.800
    4.279   4.277   5.911   6.305   6.082   6.962   4.499   3.923   5.073   5.709
    4.551   2.911   3.231   4.090   5.764   4.128   5.614   4.276   5.298   4.777
    5.956   4.597   4.948   6.397   3.346   5.113   6.463   5.150   3.240   3.016
    8.623   7.686   5.341   3.245   3.523   3.041   2.535   4.032   3.125   3.789
    4.395   5.904   3.066   5.308   2.471   4.787   5.306   3.703   2.218   4.668
    4.369   5.296   6.460   2.181   3.412   4.570   6.466   3.281   5.666   5.605
    4.830   1.226   1.623   3.344   4.871   2.844   3.336   5.134   4.547   2.987
    3.201  -0.298  -2.094   2.698   2.859   0.102   4.145   3.313   1.953   3.811
    0.029   1.592   1.452   0.807   1.337   1.601   1.316   1.680   0.716  -0.819

    0.700   3.355
    5.039   5.124   8.115   5.708   7.445   6.002   5.364   3.521   4.827   2.551
    4.351   4.506   5.907   6.769   5.915   6.372   4.391   3.770   5.468   5.743
    4.491   2.854   3.549   4.341   5.707   3.984   5.753   4.022   5.113   4.529
    5.923   4.916   4.645   6.308   3.126   5.421   6.331   5.152   3.153   2.890
    8.514   7.897   5.279   2.658   3.574   3.118   2.656   3.649   3.061   4.027
    4.961   5.643   2.821   5.639   2.497   4.496   4.847   3.852   2.218   4.988
    4.416   5.418   6.621   2.349   3.374   4.399   6.880   3.373   5.350   5.482
    4.585   1.338   1.582   3.620   5.322   3.257   3.006   5.216   4.704   3.214
    3.531  -0.756  -1.823   2.728   3.085   0.587   4.279   3.740   1.742   3.493
    0.019   2.053   1.564   1.127   1.264   1.287   1.492   1.518   0.754  -0.884

    0.750   3.366
    4.951   5.057   8.452   5.634   7.351   5.952   5.719   3.558   5.090   2.879
    4.353   4.674   5.992   6.963   5.723   6.779   4.593   3.606   5.664   5.586
    4.589   3.147   3.620   4.313   5.346   3.575   5.748   4.107   5.437   4.927
    6.544   4.900   4.307   6.058   2.889   5.662   6.422   5.382   3.078   2.809
    8.466   7.800   5.048   2.912   3.130   2.796   2.084   3.916   2.820   3.630
    5.305   5.772   3.066   5.618   2.546   4.321   5.183   3.943   1.965   5.224
    4.379   5.026   6.437   2.865   3.772   4.317   6.965   3.373   5.697   5.635
    4.577   1.961   1.429   3.427   5.209   3.444   3.104   5.636   4.631   3.565
    3.697  -0.793  -1.566   2.692   3.183   1.030   4.274   3.178   1.588   3.188
    0.713   1.824   1.792   0.981   1.275   1.493   1.899   1.283   0.807  -0.866

    0.800   3.709
    4.661   5.218   8.485   5.986   7.551   6.020   5.778   3.764   4.891   3.322
    4.382   4.921   6.109   7.172   6.398   6.549   4.827   3.322   5.866   4.829
    4.959   3.024   3.231   4.189   5.390   3.138   5.907   4.273   5.446   5.752
    6.797   5.483   4.000   5.951   2.687   5.850   6.553   5.025   3.179   3.337
    8.218   7.684   4.931   3.289   3.139   2.374   2.289   4.359   3.337   3.749
    5.725   5.575   3.395   5.393   2.116   4.226   5.070   3.844   2.161   5.594
    4.579   5.469   6.384   3.076   3.543   4.392   6.735   3.501   5.110   5.574
    4.494   2.267   1.274   3.216   4.841   3.857   3.062   5.494   4.523   3.503
    3.690  -0.890  -1.672   2.701   3.153   1.048   4.025   3.462   1.417   3.085
    1.097   1.740   1.539   0.622   1.441   1.435   2.078   2.090   0.746  -1.167

    0.850   3.569
    5.002   5.295   8.854   5.816   7.324   6.437   5.658   3.898   5.186   3.738
    4.399   5.246   5.953   7.071   6.024   6.545   4.793   3.609   5.622   4.737
    4.956   3.124   2.839   3.782   5.485   3.297   5.762   3.724   5.807   5.959
    7.105   5.395   4.104   5.513   2.905   5.410   6.727   5.137   3.086   3.406
    7.925   7.586   5.568   3.433   2.932   2.946   2.377   4.382   3.705   3.597
    6.118   5.705   3.542   5.164   2.338   4.265   5.052   3.838   2.022   5.621
    4.307   5.451   6.139   3.484   2.943   4.218   6.870   3.408   5.484   5.651
    4.658   2.186   1.579   3.129   4.800   3.753   3.056   5.312   4.909   3.764
    3.538  -0.690  -1.716   2.523   3.205   1.131   3.771   3.497   1.473   3.344
    0.969   1.745   1.430   0.754   1.067   0.996   1.380   2.084   1.181  -0.663

    0.900   3.829
    5.396   4.969   8.402   5.991   7.078   5.868   5.949   3.317   5.409   3.956
    4.280   4.954   6.371   6.760   6.197   6.827   4.560   3.912   5.950   5.410
    4.995   3.824   2.383   3.571   5.620   3.124   6.165   3.953   5.892   5.872
    6.899   5.592   3.976   5.735   2.634   5.312   6.939   5.684   3.019   3.543
    7.536   7.574   5.674   3.796   2.693   3.212   2.635   4.306   4.195   3.406
    6.230   5.431   3.858   5.171   2.184   4.437   5.391   4.131   1.956   5.683
    4.165   5.174   5.759   3.393   2.876   4.202   6.571   3.394   5.399   5.648
    5.222   2.050   1.421   3.034   5.090   3.858   3.299   5.418   5.384   4.031
    3.620  -0.654  -1.738   2.286   3.390   1.248   4.144   3.128   1.390   3.850
    1.055   1.838   1.382   0.579   1.020   0.918   0.796   1.896   1.405   0.386

    0.950   3.541
    5.494   4.754   7.966   5.883   6.929   5.583   5.701   3.210   5.278   4.172
    4.482   5.265   5.973   6.670   5.947   6.947   4.230   3.518   5.598   5.349
    5.040   3.508   2.126   3.477   5.839   3.318   6.051   3.896   5.731   5.955
    7.362   5.912   4.294   5.582   2.508   5.375   6.363   6.101   3.015   3.730
    7.596   7.519   5.453   3.463   3.047   3.347   3.064   3.918   3.778   3.263
    6.656   6.058   3.626   5.321   2.222   4.371   5.258   4.643   1.802   5.823
    4.453   5.279   5.808   3.277   2.823   4.387   6.259   3.598   5.706   5.972
    4.792   2.025   1.346   3.338   5.056   4.321   3.240   6.022   5.543   3.911
    3.514  -0.464  -1.658   1.901   3.482   1.039   4.095   2.877   1.686   4.077
    0.821   1.908   1.238   0.797   1.578   0.650   0.728   1.568   1.335   0.500

    1.000   3.546
    5.289   5.079   7.973   5.840   7.013   5.366   5.821   3.389   4.453   4.280
    4.893   5.538   5.850   7.019   5.922   6.858   4.547   3.284   5.636   5.013
    5.251   3.076   2.188   2.910   5.753   3.506   6.259   4.138   5.619   6.023
    7.088   5.300   4.162   5.619   2.386   5.101   6.457   6.144   2.778   3.409
    7.697   7.795   5.351   3.089   2.857   3.429   3.287   3.577   3.109   3.471
    6.501   6.432   3.482   5.145   2.115   4.489   5.070   4.916   2.401   5.440
    4.216   5.503   5.690   3.225   2.906   4.337   6.486   3.560   5.346   5.995
    4.469   1.932   1.347   3.296   4.711   4.033   3.460   5.986   5.805   4.584
    3.447   0.374  -1.395   2.179   3.763   1.382   3.656   3.333   1.599   3.793
    0.741   1.575   1.127   0.873   1.132   1.365   0.957   1.392   1.201  -0.152

    1.050   3.561
    5.522   5.417   7.786   5.800   7.208   4.997   6.163   3.618   4.572   3.733
    4.598   5.521   5.969   7.211   6.328   6.780   4.013   3.449   5.333   5.010
    4.581   2.907   2.122   3.733   5.468   3.724   6.307   3.993   5.354   6.123
    6.745   5.131   4.220   6.012   2.681   5.112   7.013   6.456   3.034   3.484
    7.757   7.737   5.040   3.485   2.548   3.146   3.126   4.238   3.660   3.458
    6.157   6.874   3.605   5.016   1.926   4.520   5.087   4.649   2.377   5.440
    3.811   5.642   6.097   3.205   2.725   4.298   6.682   3.333   5.290   5.473
    4.821   1.712   0.894   2.688   4.989   3.836   3.687   6.187   5.776   4.691
    3.236   0.424  -1.833   2.183   3.912   2.009   3.591   3.162   1.723   3.555
    0.563   1.849   0.970   1.061   1.064   1.718   0.813   1.448   1.321  -0.008

    1.100   3.901
    5.195   5.340   7.922   6.346   7.844   4.757   6.244   3.157   4.995   3.963
    5.419   5.772   5.825   7.110   6.373   6.673   3.579   3.445   5.671   5.125
    4.502   2.846   2.144   3.885   5.934   3.369   6.103   4.071   5.737   6.043
    6.693   4.962   4.195   5.875   2.635   5.300   6.745   6.310   3.296   3.429
    7.605   7.354   4.677   3.628   2.652   3.622   2.914   4.269   3.688   3.237
    6.626   7.256   4.234   4.951   2.439   4.274   4.890   5.117   2.597   5.996
    3.436   5.623   6.603   3.398   2.967   4.245   6.963   3.662   5.188   6.054
    5.361   1.565   1.293   2.693   5.318   3.667   3.367   6.155   5.751   4.749
    3.588   0.294  -2.048   2.240   3.931   2.188   3.745   2.980   1.500   3.390
    0.383   1.872   0.663   1.195   1.715   1.658   0.622   1.873   1.334   0.272

    1.150   3.878
    4.942   5.027   8.002   6.133   7.697   5.058   6.050   2.728   4.655   3.916
    5.337   6.106   5.761   7.710   6.315   6.798   3.588   3.362   5.969   5.101
    4.170   2.775   2.337   3.850   5.928   3.311   6.049   4.282   5.579   6.149
    6.623   5.448   3.644   5.935   2.783   5.473   6.683   6.100   2.852   3.519
    7.397   7.018   4.512   3.382   2.553   3.323   2.597   4.137   3.798   2.860
    6.254   7.438   4.104   5.356   2.245   4.293   4.958   5.288   2.829   6.216
    2.872   5.809   6.760   3.577   2.838   3.891   7.101   3.661   5.095   6.317
    5.279   2.185   0.889   2.623   5.215   3.687   2.596   6.033   5.905   4.186
    3.427   0.343  -1.838   2.421   4.237   2.153   3.533   3.155   1.664   3.292
    0.636   1.258   0.684   1.081   1.765   1.809   0.563   2.365   1.128   0.444

    1.200   4.187
    5.092   5.426   8.405   5.903   7.078   5.371   5.920   2.984   4.250   3.704
    5.434   6.060   5.945   7.323   6.158   7.304   3.509   3.671   6.087   5.586
    3.848   2.980   2.584   3.897   5.958   3.607   5.538   4.612   5.465   6.322
    6.460   5.345   3.859   5.764   2.628   5.531   6.106   5.823   2.695   3.290
    7.320   6.913   4.589   2.658   3.022   3.231   2.746   3.808   3.833   3.492
    6.141   7.460   4.417   5.449   2.371   4.176   4.873   5.278   3.369   5.419
    2.534   5.896   6.718   3.526   3.119   4.198   7.194   3.866   5.264   6.617
    4.516   2.176   0.617   2.733   5.201   3.912   2.779   6.166   5.754   3.204
    3.681   0.344  -1.647   1.713   3.945   2.380   4.035   3.297   1.571   3.256
    0.329   1.677   1.019   1.220   1.172   2.121   0.695   2.389   1.093   0.014

    1.250   3.723
    4.944   5.709   8.024   5.783   6.592   5.011   5.936   2.980   4.616   3.655
    5.286   5.398   6.187   7.157   6.001   7.360   3.442   3.863   5.841   6.120
    3.760   3.050   2.239   4.014   5.633   3.119   5.984   4.882   4.979   5.981
    6.245   5.483   4.017   5.480   2.419   5.767   6.015   6.182   2.932   3.396
    7.416   6.830   4.300   2.681   3.032   3.241   2.771   3.513   3.984   3.574
    6.166   7.035   3.994   5.511   2.469   4.326   5.099   5.426   3.426   5.362
    2.951   5.839   6.729   3.361   3.043   4.026   7.163   3.721   5.267   6.415
    4.673   2.252   0.869   2.518   5.468   4.034   2.891   6.153   5.892   3.232
    3.631   0.142  -1.955   1.308   3.658   2.042   3.627   3.211   1.772   3.545
    0.072   1.510   1.193   1.195   1.348   2.174   1.000   2.091   1.167  -0.459

    1.300   3.679
    4.687   5.435   8.578   6.169   6.477   5.504   5.971   2.839   4.771   3.604
    4.930   5.572   6.701   7.175   6.382   7.395   3.332   3.236   5.890   5.947
    3.512   3.137   2.388   4.289   5.613   2.998   5.766   5.073   4.734   5.671
    6.250   5.530   3.839   5.481   2.295   6.099   6.462   5.969   2.955   3.723
    7.625   6.864   4.223   2.708   2.970   3.175   2.665   3.651   4.002   3.704
    6.365   7.120   3.739   5.394   2.376   4.496   5.044   5.400   3.399   5.823
    2.669   5.931   7.209   3.652   3.166   3.753   7.266   3.955   5.045   6.405
    4.899   2.026   1.231   2.678   5.808   4.103   2.897   5.883   5.994   3.339
    3.213   0.070  -1.568   1.283   3.883   1.856   3.458   3.393   1.923   3.761
   -0.020   1.633   0.826   0.706   0.876   2.325   1.213   1.615   0.962  -0.906

    1.350   3.773
    4.384   5.479   8.766   6.246   6.156   5.248   6.609   3.363   4.690   3.423
    4.635   6.039   6.919   6.967   5.653   6.795   3.241   3.511   5.590   5.659
    3.478   3.116   2.593   4.830   6.007   3.143   5.449   5.352   4.879   5.772
    5.923   5.529   4.021   5.282   2.337   6.351   5.939   5.822   2.788   4.020
    7.445   6.510   4.227   2.836   2.549   3.549   2.578   3.701   3.803   3.786
    6.349   7.210   3.758   4.798   2.665   4.101   5.160   5.377   3.592   5.978
    3.154   6.507   7.075   3.552   2.966   3.923   6.968   4.306   5.253   6.046
    4.774   2.355   1.550   2.389   5.556   4.091   2.878   6.198   5.559   3.367
    3.085   0.141  -1.850   1.408   3.867   1.601   3.606   3.220   1.615   4.164
    0.278   1.545   1.275   0.977   1.047   1.934   1.387   1.822   0.543  -0.813

    1.400   3.687
    4.109   5.445   8.701   6.165   6.143   5.120   6.888   3.036   5.084   3.225
    4.901   6.023   6.422   7.073   5.079   6.507   3.382   3.926   5.082   5.849
    3.549   3.246   2.271   4.925   5.790   3.446   5.174   5.510   4.567   5.837
    5.972   5.636   3.887   6.180   2.232   6.455   6.209   5.557   2.825   4.021
    7.300   6.342   3.693   3.393   2.489   3.406   2.398   4.060   3.357   3.874
    6.762   7.019   4.260   4.677   2.701   3.909   5.119   5.439   3.492   6.355
    2.891   6.932   7.154   3.649   3.505   3.871   7.628   3.513   5.747   5.907
    4.821   2.095   1.463   2.429   5.854   4.168   3.180   6.098   5.392   3.398
    2.907   0.116  -1.902   1.178   3.983   1.289   3.684   3.172   1.373   3.680
   -0.057   1.117   1.526   1.087   1.317   1.612   0.756   1.302   0.454  -1.001

    1.450   3.908
    4.139   5.357   8.081   6.315   5.684   5.553   6.874   3.234   4.943   3.408
    4.919   6.016   6.527   6.678   5.307   6.528   3.387   3.849   4.915   5.696
    3.516   3.508   2.244   4.954   5.440   3.182   4.987   5.589   5.002   5.876
    5.475   5.682   3.715   6.264   2.219   6.262   5.868   5.056   2.369   4.113
    7.152   6.214   3.904   3.085   2.937   3.346   2.220   3.892   3.647   4.251
    6.789   7.591   4.255   4.711   2.470   4.162   5.248   5.749   3.697   6.419
    3.209   7.145   6.969   3.704   3.323   3.782   7.805   3.283   5.234   5.712
    4.835   2.297   1.253   2.665   5.901   4.385   3.313   5.974   5.366   3.449
    2.493   0.265  -1.899   0.649   4.166   1.531   4.164   3.510   1.755   3.637
   -0.344   1.015   1.656   1.035   1.531   2.282   1.173   1.265   1.036  -0.776

    1.500   3.863
    4.203   5.287   8.099   5.770   5.761   5.534   6.680   3.396   5.088   3.479
    4.784   5.561   6.316   6.394   5.545   6.914   3.744   3.604   5.051   5.722
    3.271   3.538   2.279   5.463   4.932   2.905   5.267   5.234   4.856   5.778
    5.600   5.705   3.908   6.208   2.068   5.869   5.805   4.907   2.784   4.198
    7.161   6.252   3.863   3.305   2.786   3.245   1.823   3.904   3.512   4.432
    7.058   7.796   4.046   4.348   2.263   4.223   5.083   5.755   3.589   6.467
    2.923   7.083   6.929   4.083   2.951   3.435   7.556   3.421   5.451   6.171
    4.586   2.447   1.010   2.910   5.902   3.900   3.317   5.620   5.211   3.501
    2.658   0.378  -1.950   0.665   4.200   1.581   3.861   3.583   1.779   3.736
   -0.201   1.119   1.948   1.114   1.503   2.386   0.761   1.639   1.163  -0.911

    1.550   3.605
    4.334   5.397   8.233   5.542   6.466   5.715   6.566   3.460   4.695   3.852
    4.799   5.265   6.757   6.972   5.313   7.161   4.384   3.995   5.069   5.661
    3.055   3.527   2.123   5.083   4.577   2.858   5.268   5.423   5.049   5.520
    5.279   5.005   3.567   6.214   1.955   5.940   5.946   4.526   2.505   4.317
    7.658   6.206   3.848   3.497   2.692   2.383   1.482   3.775   3.832   4.665
    7.112   7.747   4.156   3.922   2.463   4.131   5.366   5.576   3.109   6.146
    2.723   7.370   7.157   3.867   2.802   3.807   7.641   2.920   5.824   6.208
    4.337   2.326   1.383   3.283   5.870   4.241   3.625   5.650   5.564   3.616
    3.080   0.988  -2.013   1.179   4.776   1.597   3.466   3.464   1.850   3.881
    0.249   0.501   1.527   1.391   1.381   2.145   0.687   1.898   1.335  -0.833

    1.600   3.553
    4.427   6.057   8.261   5.850   5.930   5.677   6.821   3.754   4.334   4.404
    5.332   4.762   6.850   7.283   5.183   6.744   4.340   3.973   4.586   5.461
    3.015   3.410   1.762   4.686   4.948   3.273   5.582   5.238   5.024   5.853
    5.300   5.008   3.762   5.854   1.845   6.125   5.626   4.649   2.240   3.643
    7.686   6.127   4.361   3.178   2.864   2.470   1.566   3.853   3.840   4.379
    6.872   7.770   4.395   3.804   2.789   4.158   5.302   5.830   3.398   6.279
    2.551   7.053   7.370   3.825   2.655   4.157   7.380   2.428   5.634   5.931
    4.174   2.078   1.540   3.309   5.980   4.492   3.858   5.764   4.994   3.403
    3.179   1.570  -2.200   1.253   4.954   1.626   3.332   3.667   2.115   3.953
    0.022   0.557   1.370   1.585   1.551   2.328   0.997   1.848   1.407  -0.936

    1.650   3.484
    4.500   5.611   8.499   5.594   6.068   5.738   6.999   3.755   4.468   4.534
    5.590   4.724   6.894   6.882   5.202   6.728   4.148   3.702   4.442   5.434
    2.712   3.883   1.731   4.769   4.988   2.875   5.664   5.735   4.863   5.954
    5.637   4.901   3.856   5.528   1.698   5.751   5.380   5.085   2.273   3.877
    7.333   5.324   4.454   3.603   3.385   2.815   1.973   4.124   3.593   4.220
    7.004   7.969   4.488   3.880   2.374   4.400   5.478   5.890   3.661   6.693
    2.130   7.332   7.176   3.950   2.393   4.082   7.540   2.872   6.079   5.599
    4.089   2.195   1.801   3.027   6.009   4.388   4.221   5.509   5.290   3.605
    3.141   1.212  -2.572   1.523   4.733   1.876   3.389   3.774   2.375   3.923
    0.067   0.575   1.321   1.733   1.214   1.672   0.972   1.821   1.404  -0.976

    1.700   3.959
    4.621   5.474   8.228   5.752   6.561   5.416   7.258   3.895   4.160   4.409
    4.752   5.016   6.845   7.185   5.366   6.091   4.450   3.830   4.616   5.521
    2.800   4.157   1.930   4.714   5.172   3.564   5.625   5.245   5.408   6.181
    5.244   5.387   4.370   5.132   1.781   5.253   5.159   4.703   2.398   4.006
    7.161   5.063   4.685   3.641   3.632   3.492   1.974   3.903   4.218   3.541
    6.896   7.814   4.836   4.128   1.989   4.739   5.428   6.047   3.947   6.339
    2.236   7.468   6.982   3.571   2.689   3.907   7.504   3.104   6.731   5.617
    3.642   2.125   1.750   2.568   6.625   3.795   4.557   5.236   4.891   3.733
    3.354   1.639  -2.217   1.907   4.449   1.685   3.768   3.805   1.952   3.553
    0.199   0.393   1.400   1.551   1.486   1.155   1.224   1.793   1.207  -1.276

    1.750   4.241
    4.887   5.512   8.142   5.381   6.661   5.589   7.277   3.135   4.005   4.583