
This full-field turbulence file was generated by TurbSim (v1.40, 12-Sep-2008) on 27-May-2021 at 12:56:28.

 | w-comp |  Y  x  Z  | Grid Resolution (Y x Z) | Time-step | Hub Elev | Mean U |
            10    10     15.556     15.556          0.050      80.00      5.00

 Z Coordinates (m):
  -70.000 -54.444 -38.889 -23.333  -7.778   7.778  23.333  38.889  54.444  70.000

 Y Coordinates (m):
  -70.000 -54.444 -38.889 -23.333  -7.778   7.778  23.333  38.889  54.444  70.000

    0.000  -1.005
    0.487  -0.168   0.662  -0.765  -0.039  -0.521   0.355  -0.915   0.725  -0.803
   -0.914  -0.677  -0.442   0.221   0.395   1.012  -0.964   0.125  -0.910  -0.843
    0.817  -0.616   0.343   0.547  -0.704   1.120   0.722  -0.365   0.343   0.112
    0.555   0.902  -0.313   0.339   0.192  -0.262  -0.710   0.088   0.539   1.061
    1.153  -0.396  -0.681  -2.004   0.259  -0.318   0.199   0.051  -0.004   0.109
   -0.638   0.002   1.190   0.282   0.340  -0.008  -0.227   0.281   0.282  -0.495
    1.255   1.610   0.904  -0.993   0.537   0.055   0.793  -0.463  -1.083  -0.179
    0.105   0.223   0.141   0.773  -0.462   0.239  -0.111  -0.010  -1.243   0.326
    0.528   0.169   0.192  -0.931  -0.406  -0.284   0.457   0.425  -0.073   0.952
    0.460   0.176  -0.118  -0.674   1.408  -0.588   0.627   0.604  -0.443   1.013

    0.050  -0.928
    0.425  -0.336   0.696  -0.772  -0.256  -0.599   0.459  -0.828   0.611  -0.987
   -1.095  -0.791  -0.559   0.213   0.443   0.977  -0.881   0.077  -0.826  -0.745
    0.526  -0.980   0.433   0.505  -0.780   1.267   0.611  -0.329  -0.033   0.181
    0.152   0.822  -0.416   0.418   0.034  -0.391  -0.611  -0.056   0.524   1.079
    1.007  -0.251  -0.823  -1.720   0.392  -0.600   0.059  -0.332  -0.005  -0.343
   -0.516   0.215   1.222   0.043   0.520   0.076  -0.158   0.618   0.446  -0.473
    1.260   1.323   1.233  -1.154   0.692  -0.026   1.258  -0.634  -1.111  -0.249
    0.031   0.202   0.363   0.846  -0.389   0.250  -0.058   0.080  -1.241   0.406
    0.520   0.156   0.203  -1.121  -0.091  -0.202   0.257   0.500  -0.028   0.977
    0.089   0.198  -0.125  -0.926   1.425  -0.729   0.542   0.667  -0.507   0.999

    0.100  -0.941
    0.474  -0.612   0.513  -0.669  -0.106  -0.682   0.588  -0.572   0.614  -0.988
   -0.881  -0.832  -0.486   0.295   0.442   0.952  -0.881  -0.161  -0.620  -0.438
    0.545  -1.078   0.191   0.517  -0.833   0.915   0.541  -0.132  -0.047   0.435
    0.218   0.730  -0.279   0.454  -0.038  -0.562  -0.671  -0.079   0.378   0.831
    1.180  -0.270  -0.993  -1.624   0.413  -0.614  -0.066  -0.655  -0.045  -0.365
   -0.673   0.264   1.338   0.047   0.397  -0.170  -0.152   0.750   0.516  -0.584
    1.213   1.376   1.025  -0.763   0.250   0.011   1.413  -0.569  -1.126  -0.357
    0.305   0.218   0.528   0.806  -0.138   0.813   0.190   0.054  -1.175   0.563
    0.498   0.198   0.258  -1.072   0.130  -0.300   0.215   0.396  -0.256   1.301
    0.000   0.061  -0.412  -1.046   1.257  -1.152   0.332   0.592  -0.757   0.778

    0.150  -0.845
    0.667  -0.572   0.543  -0.820   0.137  -0.866   0.971  -0.330   0.719  -0.600
   -0.869  -1.042  -0.543   0.464   0.475   0.935  -1.137  -0.323  -0.405  -0.392
    0.757  -0.835   0.142   0.293  -1.071   0.743   0.390  -0.423  -0.168   0.172
    0.325   0.667  -0.036   0.526  -0.044  -0.361  -0.780  -0.205   0.498   0.624
    1.265  -0.466  -1.083  -1.417   0.634  -1.062  -0.066  -0.278  -0.021  -0.155
   -0.646   0.406   1.300  -0.169   0.126  -0.189  -0.142   1.066   0.657  -0.463
    1.308   1.244   1.109  -0.749   0.307  -0.101   1.145  -0.605  -1.065  -0.153
    0.331   0.045   0.213   1.000  -0.202   0.701   0.207   0.443  -1.245   0.482
    0.768  -0.044   0.508  -0.857   0.149  -0.265  -0.005   0.246  -0.236   1.314
   -0.033   0.012  -0.262  -0.854   1.408  -1.000   0.390   0.461  -0.856   0.948

    0.200  -0.942
    0.560  -0.069   0.590  -0.640  -0.018  -0.764   1.195  -0.372   0.907  -0.844
   -0.789  -1.296  -0.841   0.423   0.275   0.523  -1.191  -0.214  -0.307  -0.118
    0.729  -0.747   0.090   0.748  -1.082   0.627   0.455  -0.508  -0.382   0.202
    0.263   0.639   0.060   0.575  -0.140  -0.173  -0.877  -0.230   0.243   0.452
    0.996  -0.325  -0.829  -1.475   0.742  -1.307  -0.224  -0.483   0.170  -0.237
   -0.371   0.648   1.002   0.148   0.160   0.025  -0.170   1.210   0.660  -0.344
    1.259   1.205   1.252  -0.649   0.416  -0.102   1.165  -0.751  -0.720  -0.123
    0.193  -0.117   0.035   0.688   0.113   0.582   0.137   0.360  -1.449   0.292
    0.559  -0.014   0.466  -0.774   0.169   0.005   0.374   0.364  -0.199   1.323
   -0.159   0.051  -0.146  -0.386   1.126  -1.075   0.558   0.390  -0.981   1.149

    0.250  -0.915
    0.588  -0.322   1.112  -0.715   0.045  -1.148   0.899  -0.148   0.780  -1.044
   -0.864  -0.796  -0.762   0.522   0.356   0.307  -1.028  -0.240  -0.250  -0.068
    0.569  -0.588  -0.066   0.492  -0.980   0.584   0.190  -0.228  -0.440   0.175
    0.189   0.425   0.071   0.527  -0.256  -0.061  -0.977  -0.307   0.256   0.377
    0.907  -0.320  -1.073  -1.376   0.666  -1.356  -0.166  -0.674   0.106  -0.293
   -0.323   0.403   1.107   0.020   0.601  -0.077  -0.352   1.218   0.517  -0.497
    1.316   1.111   1.122  -0.363   0.557   0.078   0.807  -0.933  -0.839  -0.190
    0.282   0.158   0.074   0.327   0.012   0.335   0.204   0.543  -1.266   0.120
    0.241   0.018   0.351  -0.688   0.207  -0.124   0.435   0.348  -0.172   1.424
   -0.034   0.070  -0.119  -0.639   1.018  -1.060   0.705   0.372  -1.037   1.266

    0.300  -0.762
    0.699  -0.339   0.785  -0.829   0.067  -0.881   0.724  -0.062   0.704  -1.017
   -0.879  -0.963  -0.575   0.414   0.660   0.494  -1.030  -0.165  -0.022  -0.286
    0.451  -0.643  -0.254   0.405  -0.924   0.841   0.393  -0.639  -0.831  -0.114
    0.321   0.092  -0.207   0.038  -0.134   0.059  -1.198  -0.125   0.553   0.275
    1.102  -0.110  -1.029  -1.270   0.695  -1.216  -0.329  -0.690   0.053  -0.311
   -0.471   0.308   1.347  -0.191   0.302   0.035  -0.494   1.046   0.533  -0.448
    1.321   1.253   1.130  -0.071   0.657   0.219   0.562  -0.949  -0.696  -0.154
    0.176   0.364  -0.083   0.362  -0.192   0.372   0.067   0.578  -1.142   0.024
    0.477  -0.083   0.435  -0.637   0.440  -0.109   0.452   0.335  -0.400   1.181
   -0.340  -0.228   0.068  -0.471   1.161  -0.847   0.670   0.494  -0.830   1.397

    0.350  -0.963
    0.605  -0.044   0.994  -0.969  -0.050  -0.669   0.863   0.111   0.735  -0.978
   -0.987  -0.675  -0.664   0.195   0.493   0.300  -0.995  -0.070  -0.123  -0.142
    0.289  -0.634  -0.459   0.240  -0.845   0.796   0.338  -0.819  -0.305   0.082
    0.143  -0.298  -0.513  -0.019  -0.180   0.344  -1.461   0.145   0.782   0.221
    1.097  -0.065  -0.683  -1.375   0.793  -1.305  -0.392  -0.403   0.091  -0.539
   -0.761   0.044   1.487  -0.308  -0.040  -0.016  -0.430   1.113   0.718  -0.441
    1.425   1.421   1.069  -0.222   0.552   0.133   0.519  -0.796  -0.479  -0.231
    0.152   0.206   0.146   0.183   0.257   0.232   0.055   0.374  -0.894   0.033
    0.627   0.070   0.552  -0.485   0.379  -0.227   0.378   0.410  -0.391   0.839
   -0.158   0.180  -0.169  -0.200   1.138  -0.965   0.688   0.187  -1.076   1.340

    0.400  -0.924
    0.568   0.153   1.168  -0.831  -0.124  -0.700   0.752   0.275   0.646  -0.914
   -1.034  -0.306  -0.671   0.249   0.587   0.075  -0.919  -0.056  -0.154  -0.132
    0.508  -0.804  -0.258   0.164  -0.715   0.764   0.305  -0.772   0.118   0.221
    0.060  -0.246  -0.170  -0.069  -0.128   0.525  -1.118   0.191   1.105   0.252
    1.257  -0.178  -0.418  -1.423   0.949  -1.238  -0.606  -0.168  -0.154  -0.437
   -0.695  -0.267   1.370  -0.190   0.341  -0.002  -0.491   1.120   0.862  -0.597
    1.171   1.307   1.232  -0.261   0.248   0.120   0.564  -0.775  -0.583   0.002
    0.074   0.441   0.198   0.239  -0.112   0.223   0.195   0.202  -1.083  -0.028
    0.723   0.127   0.568  -0.488   0.395  -0.341   0.142   0.406   0.156   0.658
   -0.199   0.126   0.054  -0.132   1.153  -0.861   0.682   0.537  -1.078   1.435

    0.450  -0.955
    0.751  -0.051   0.882  -0.916  -0.165  -0.807   0.431   0.262   0.336  -0.749
   -1.251  -0.261  -0.463   0.350   0.442   0.259  -0.823   0.015  -0.032   0.212
    0.495  -1.023  -0.267  -0.024  -0.595   0.857   0.011  -0.568  -0.166   0.162
    0.329  -0.077   0.001   0.098   0.109   0.819  -1.160   0.393   1.280   0.086
    1.030  -0.432  -0.300  -1.371   0.959  -1.680  -0.806  -0.175  -0.210  -0.371
   -0.539  -0.464   1.151  -0.156   0.711   0.154  -0.471   1.070   0.682  -0.225
    0.884   1.122   1.335  -0.331   0.556   0.109   0.545  -0.885  -0.507   0.174
    0.236   0.480   0.514   0.484   0.217   0.259   0.463  -0.065  -1.302   0.092
    0.945  -0.056   0.645  -0.510   0.222  -0.324  -0.095   0.870   0.015   0.689
   -0.201   0.013   0.090  -0.059   1.063  -0.932   0.775   0.779  -0.944   1.424

    0.500  -1.044
    0.772   0.159   0.564  -0.531  -0.094  -1.024   0.570  -0.068   0.231  -0.571
   -1.462  -0.300  -0.088   0.158   0.520   0.026  -0.662   0.331  -0.311   0.452
    0.254  -0.806  -0.319   0.141  -0.264   0.852  -0.004  -0.212  -0.354   0.380
    0.146   0.180   0.096  -0.162   0.037   0.577  -1.032   0.249   1.192   0.062
    0.926  -0.267  -0.479  -1.147   0.811  -1.432  -0.843  -0.251  -0.512  -0.385
   -0.577  -0.469   1.444  -0.266   0.475   0.278  -0.258   1.066   0.624   0.008
    0.882   0.888   1.391  -0.084   0.672   0.042   0.494  -1.159  -0.708   0.104
    0.133   0.222   0.836   0.520   0.178   0.223   0.223   0.040  -1.537   0.012
    0.714  -0.327   0.756  -0.617   0.035  -0.612  -0.229   0.931  -0.319   0.514
   -0.123  -0.048   0.201   0.236   1.026  -0.967   0.799   0.475  -0.921   1.235

    0.550  -0.868
    0.484  -0.204   0.299  -0.592  -0.185  -1.217   0.379   0.055   0.398  -0.684
   -1.239  -0.661  -0.002   0.194   0.538   0.477  -0.854   0.317  -0.525   0.285
   -0.082  -0.907   0.041   0.225  -0.379   0.856  -0.207  -0.723  -0.350   0.116
    0.228   0.105  -0.013  -0.010  -0.166   0.537  -0.972   0.106   1.103  -0.188
    1.132  -0.643  -0.697  -1.345   0.729  -1.324  -0.487  -0.466  -0.452  -0.319
   -0.791  -0.296   1.638  -0.340   0.368   0.308  -0.081   1.133   0.471   0.108
    0.599   1.003   1.457  -0.174   0.597  -0.105   0.321  -1.000  -0.581  -0.111
    0.001   0.068   0.729   0.814  -0.055   0.454   0.065   0.058  -1.646   0.146
    0.845  -0.230   0.614  -0.564  -0.324  -0.496  -0.493   0.987  -0.124   0.648
   -0.477  -0.165   0.300   0.356   0.760  -1.116   0.920   0.450  -1.069   1.188

    0.600  -0.715
    0.293   0.157   0.240  -0.624  -0.192  -1.437   0.137   0.212   0.116  -0.876
   -1.470  -0.467  -0.223   0.202   0.645   0.304  -1.057   0.244  -0.221   0.219
    0.135  -1.227  -0.106   0.148  -0.244   1.003  -0.145  -0.756  -0.510   0.156
   -0.074   0.088   0.171  -0.093  -0.293   0.685  -0.800   0.165   0.877  -0.122
    1.017  -0.739  -0.787  -1.332   0.661  -1.094  -0.335  -0.143  -0.123  -0.303
   -0.711   0.065   1.619  -0.300   0.496  -0.018  -0.143   1.030   0.347   0.180
    0.775   0.977   1.535  -0.464   0.434  -0.065   0.317  -0.945  -0.549  -0.236
    0.042   0.002   0.246   0.753   0.095   0.382  -0.035   0.096  -1.590   0.417
    0.986  -0.212   0.432  -0.557  -0.504  -0.326  -0.301   0.930  -0.026   0.528
   -0.766  -0.120   0.309   0.430   0.831  -1.290   1.084   0.647  -1.344   1.283

    0.650  -0.560
    0.552   0.088   0.329  -0.425  -0.101  -1.310   0.219   0.055   0.323  -0.795
   -1.461  -0.136  -0.693   0.015   0.830   0.369  -0.802   0.296  -0.103   0.335
    0.448  -1.057   0.217   0.231  -0.230   1.175  -0.046  -0.731  -0.022   0.235
    0.138   0.103   0.056  -0.013  -0.057   0.295  -0.968   0.207   0.674  -0.214
    0.780  -0.796  -0.351  -1.394   0.585  -1.204  -0.533  -0.233  -0.145   0.090
   -0.899  -0.383   1.505  -0.148   0.704  -0.162   0.019   1.004   0.595   0.094
    0.892   0.785   1.572  -0.957   0.402  -0.079   0.522  -1.062  -0.751  -0.129
   -0.322   0.067   0.231   0.913   0.031   0.559   0.055   0.107  -1.815   0.554
    0.998   0.042   0.717  -0.282  -0.038  -0.377  -0.238   1.241  -0.192   0.291
   -0.862   0.262   0.267   0.547   1.166  -1.219   0.825   0.590  -1.174   1.334

    0.700  -0.577
    0.526   0.201   0.412  -0.446   0.085  -1.356   0.349   0.056   0.556  -1.095
   -1.285  -0.335  -0.844  -0.304   0.593   0.226  -1.160   0.428   0.112   0.661
    0.303  -1.155  -0.235   0.154  -0.257   1.006  -0.126  -0.879   0.246   0.076
    0.177   0.244  -0.058   0.198   0.083   0.458  -0.841   0.231   0.496  -0.247
    0.592  -0.850  -0.379  -1.334   0.568  -0.858  -0.286  -0.027  -0.226   0.007
   -0.731  -0.332   1.331  -0.057   0.520  -0.152   0.260   0.787   0.393   0.094
    0.534   0.635   1.197  -0.879   0.596   0.139   0.172  -0.799  -0.790   0.005
   -0.116   0.138   0.157   0.654  -0.004   0.754   0.192  -0.219  -1.810   0.445
    1.046   0.336   0.878   0.081   0.034  -0.499   0.419   1.011  -0.226   0.285
   -0.565   0.149   0.141   0.535   1.318  -1.215   0.740   0.666  -1.062   1.167

    0.750  -0.623
    0.742   0.428   0.462  -0.483   0.023  -1.403   0.162  -0.045   0.514  -1.026
   -1.313  -0.396  -0.696  -0.209   0.613   0.547  -1.224   0.183   0.547   0.956
    0.067  -1.128  -0.154   0.341  -0.213   1.039   0.112  -0.852   0.076   0.200
    0.004   0.219  -0.112   0.385   0.042   0.664  -0.995   0.263   0.471   0.044
    0.567  -0.740  -0.192  -1.188   0.603  -0.715   0.107  -0.298  -0.343  -0.268
   -0.474  -0.437   1.310  -0.048   0.684   0.145   0.472   0.993   0.307  -0.174
    0.543   0.518   0.929  -0.635   0.665   0.042   0.024  -0.502  -0.951   0.087
   -0.274   0.259   0.237   0.730   0.026   0.812   0.133  -0.674  -1.773   0.384
    1.255   0.243   0.912   0.179  -0.059  -0.536   0.557   0.902  -0.533   0.513
   -0.626   0.372   0.371   0.725   1.053  -1.003   0.621   0.707  -0.897   1.219

    0.800  -1.091
    0.700   0.103   0.467  -0.541   0.021  -1.225   0.166  -0.241   0.823  -1.032
   -0.930  -0.236  -0.850  -0.292   0.363   0.640  -1.382   0.350   0.929   0.617
    0.079  -0.806  -0.181   0.344  -0.169   1.121   0.612  -0.796   0.262   0.002
    0.393   0.344   0.142   0.447  -0.019   0.485  -0.753   0.459   0.697   0.139
    0.520  -0.496   0.079  -1.007   0.659  -0.657   0.217  -0.273  -0.059  -0.138
   -0.267  -0.420   1.676   0.144   0.425  -0.040   0.713   1.251   0.400  -0.067
    0.682   0.949   0.886  -0.547   0.527   0.181  -0.120  -0.564  -0.821   0.143
   -0.407   0.295   0.306   1.022   0.370   0.500   0.035  -0.119  -1.693   0.222
    1.025   0.372   0.936   0.113  -0.142  -0.455   0.424   0.644  -0.543   0.688
   -0.384   0.293   0.243   0.672   1.100  -1.117   0.666   0.361  -0.851   1.454

    0.850  -1.429
    0.668   0.162   0.482  -0.620   0.142  -1.252   0.155  -0.255   0.783  -1.235
   -0.802  -0.370  -0.726  -0.335   0.498   0.542  -1.183   0.617   0.893   0.528
   -0.133  -0.521  -0.223   0.298  -0.424   1.030   0.528  -0.542  -0.036   0.357
    0.219   0.297   0.117   0.453   0.338   0.541  -0.840   0.290   0.411  -0.003
    0.529  -0.747  -0.246  -1.034   0.859  -0.995   0.252  -0.273   0.011  -0.222
   -0.145  -0.582   1.499  -0.197   0.340  -0.236   0.572   1.233   0.507  -0.340
    0.719   1.269   0.824  -0.561   0.599   0.307  -0.069  -0.661  -0.721  -0.398
   -0.326  -0.036   0.464   0.730   0.507   0.150  -0.160  -0.225  -1.373   0.294
    1.026   0.673   0.635   0.146  -0.276  -0.284   0.228   0.793  -0.650   0.668
   -0.645   0.277   0.125   0.542   1.112  -0.836   0.629   0.329  -0.717   1.361

    0.900  -1.345
    0.558   0.189   0.717  -0.305   0.143  -1.213  -0.019  -0.506   0.830  -1.364
   -0.685  -0.167  -0.647  -0.162   0.445   0.610  -0.864   0.484   0.781   0.556
   -0.363  -0.337  -0.573   0.127  -0.219   1.027   0.392  -0.537  -0.531   0.148
    0.272   0.451   0.040   0.429   0.374   0.453  -0.725  -0.008   0.422   0.023
    0.847  -0.749  -0.386  -0.802   1.061  -1.031   0.080  -0.372  -0.272  -0.220
   -0.035  -0.464   1.291  -0.288   0.190  -0.557   0.570   1.347   0.334  -0.340
    1.055   1.377   0.926  -0.718   0.544   0.273  -0.069  -0.489  -0.361  -0.345
   -0.350   0.119   0.401   0.959   0.704   0.248  -0.191  -0.605  -1.092   0.100
    1.004   0.469   0.635  -0.309  -0.147  -0.315   0.026   0.736  -0.603   0.703
   -0.446   0.506   0.326   0.512   1.256  -0.929   0.314   0.336  -0.495   1.258

    0.950  -1.350
    0.519   0.299   0.783  -0.257   0.003  -1.364  -0.022  -0.559   0.719  -1.153
   -0.844   0.085  -0.687   0.077   0.599   0.587  -0.690   0.335   0.506   0.623
   -0.471  -0.341  -0.771   0.171  -0.267   0.995   0.429  -0.658  -0.720  -0.267
    0.127   0.681   0.027   0.555   0.415   0.522  -0.778   0.087   0.343   0.130
    0.975  -0.613   0.124  -0.602   0.966  -0.874   0.052  -0.279  -0.204  -0.105
    0.045  -0.641   1.238  -0.139   0.319  -0.520   0.466   1.352   0.177   0.163
    1.114   1.650   0.995  -0.593   0.673   0.168   0.206  -0.560  -0.328  -0.444
   -0.134   0.086   0.426   1.005   0.878   0.061   0.268  -0.519  -1.058   0.219
    0.921   0.465   0.470  -0.166  -0.019  -0.217  -0.048   0.808  -0.602   0.783
   -0.263   0.381   0.053   0.510   1.213  -0.866   0.283   0.392  -0.760   1.169

    1.000  -0.810
    0.487   0.366   0.718  -0.211   0.179  -1.344  -0.087  -0.156   0.617  -1.186
   -0.969  -0.239  -0.759   0.248   0.462   0.522  -0.451   0.195   0.444   0.592
   -0.411  -0.532  -0.692   0.075  -0.432   1.167   0.698  -0.718  -0.410  -0.163
    0.110   1.187   0.157   0.550   0.247   0.399  -0.838  -0.063   0.384   0.000
    1.051  -0.627   0.514  -0.471   0.974  -1.070  -0.344  -0.103   0.014   0.118
   -0.365  -0.529   1.093   0.065   0.270  -0.401   0.174   1.579   0.494   0.022
    0.993   1.194   0.965  -0.698   0.643   0.189  -0.126  -0.695  -0.232  -0.650
   -0.211   0.029   0.084   1.076   0.711  -0.121   0.642  -0.367  -1.258   0.120
    0.823   0.537   0.625  -0.237   0.209  -0.116   0.005   0.822  -0.612   0.737
   -0.222   0.307  -0.077   0.242   1.323  -0.970   0.297   0.443  -0.703   0.977

    1.050  -0.506
    0.283   0.100   0.557  -0.104   0.096  -1.318  -0.321  -0.067   0.369  -1.200
   -0.863  -0.155  -0.545   0.230   0.448   0.212  -0.518   0.238   0.656   0.895
   -0.321  -0.646  -0.300  -0.063  -0.503   0.961   0.457  -0.638  -0.439   0.111
    0.542   0.980  -0.166   0.331   0.377   0.322  -0.677  -0.095   0.455   0.044
    0.814  -0.608   0.320  -0.467   0.513  -1.136  -0.351  -0.217   0.065  -0.178
   -0.237  -0.367   0.979   0.273  -0.091  -0.923   0.256   1.263   0.619  -0.462
    0.984   1.198   0.749  -0.626   0.780  -0.059   0.091  -0.455   0.176  -0.238
   -0.112   0.142   0.207   0.853   0.910  -0.516   0.531  -0.152  -1.529   0.163
    1.047   0.291   0.820  -0.722   0.198  -0.200   0.025   0.957  -0.603   0.785
    0.017   0.351  -0.002   0.089   1.291  -1.039   0.400   0.463  -0.576   0.926

    1.100  -0.758
    0.249   0.090   0.626  -0.086   0.150  -0.722  -0.526   0.022   0.438  -1.197
   -0.481  -0.372  -0.451   0.291   0.440   0.159  -1.088   0.324   0.599   0.542
   -0.370  -0.906  -0.079  -0.229  -0.307   0.985   0.466  -0.818  -0.580   0.291
    0.773   0.906  -0.104   0.155   0.112   0.410  -0.394   0.099   0.063  -0.165
    0.601  -0.817   0.357  -0.554   0.547  -1.049  -0.118  -0.306  -0.037   0.028
   -0.448  -0.185   0.962   0.489  -0.245  -1.039   0.378   1.049   0.432  -0.638
    1.138   1.338   0.796  -0.473   0.772  -0.148   0.282  -0.438  -0.178  -0.122
   -0.238   0.234   0.404   1.091   0.873  -0.594   0.542   0.023  -1.374   0.096
    1.134  -0.033   0.644  -0.646   0.177  -0.110  -0.222   0.945  -0.611   1.303
    0.063   0.526  -0.040   0.024   1.483  -1.333   0.372   0.308  -0.543   1.077

    1.150  -0.835
    0.384   0.070   0.483   0.090  -0.047  -0.642  -0.940  -0.017   0.487  -1.252
   -0.377  -0.277  -0.129   0.088   0.418   0.366  -1.157   0.374   0.849   0.619
    0.138  -1.039  -0.123  -0.176  -0.395   1.152   0.405  -0.986  -0.721   0.586
    0.410   1.268  -0.131   0.097   0.099   0.526  -0.498   0.113   0.312  -0.199
    1.163  -0.546   0.138  -0.688   0.623  -1.269  -0.207  -0.432  -0.232   0.206
   -0.568  -0.345   1.068   0.790  -0.202  -1.000   0.464   0.902   0.285  -0.743
    0.869   1.115   0.888  -0.591   0.631  -0.041   0.572  -0.409  -0.062   0.137
   -0.320  -0.090   0.120   0.849   0.965  -0.760   0.248   0.072  -1.016   0.170
    1.274  -0.160   0.570  -0.842   0.281   0.005  -0.425   1.005  -0.782   1.133
    0.017   0.547  -0.111  -0.033   1.686  -1.519   0.264   0.445  -0.481   1.041

    1.200  -0.850
    0.278   0.227   0.744  -0.167   0.027  -1.012  -0.984  -0.085   0.061  -1.157
   -0.630   0.011  -0.265   0.458   0.518   0.593  -1.009   0.668   0.579   0.412
    0.363  -0.770   0.097  -0.439  -0.251   0.803   0.449  -0.824  -0.640   0.513
    0.773   1.467  -0.334   0.280   0.227   0.294  -0.612   0.237   0.463  -0.268
    1.215  -0.666   0.002  -0.522   0.492  -1.009  -0.401  -0.405  -0.652   0.479
   -0.345  -0.112   1.002   0.836  -0.232  -1.076   0.483   1.054   0.126  -1.104
    0.980   0.904   0.842  -0.587   0.391  -0.169   0.540  -0.169  -0.068   0.209
   -0.285  -0.096   0.160   0.784   0.805  -0.751   0.271  -0.021  -1.337   0.000
    1.056   0.326   0.669  -0.769   0.262   0.214  -0.388   0.697  -0.537   1.149
    0.202   0.465   0.093   0.184   1.768  -1.192   0.176   0.483  -0.573   1.041

    1.250  -1.028
    0.467  -0.061   0.862   0.015   0.028  -0.996  -0.990   0.039  -0.050  -1.423
   -0.633   0.024  -0.583   0.526   0.403   0.316  -0.798   0.664   0.408   0.444
    0.057  -0.769  -0.201  -0.778  -0.443   1.117   0.572  -0.573  -1.176   0.461
    0.810   1.523  -0.166   0.588   0.195   0.344  -0.973   0.421   0.433  -0.313
    1.047  -0.478  -0.070  -0.873   0.331  -1.258  -0.507  -0.555  -0.380   0.504
   -0.463  -0.203   0.833   0.519  -0.380  -0.837   0.242   1.398   0.204  -0.924
    1.017   1.110   0.874  -0.541   0.248  -0.064   0.679  -0.235   0.190   0.195
    0.014  -0.143   0.359   0.926   0.890  -0.431   0.190   0.042  -1.508  -0.081
    0.916   0.103   0.465  -0.525   0.121   0.469  -0.333   0.826  -0.293   0.791
    0.131   0.627  -0.189   0.280   1.566  -0.834  -0.015   0.497  -0.494   0.859

    1.300  -0.795
    0.103  -0.113   1.080   0.171   0.443  -0.945  -0.939   0.235   0.119  -1.478
   -0.694  -0.119  -0.704   0.522   0.410   0.250  -0.467   0.861   0.358   0.579
   -0.052  -0.959  -0.265  -0.591  -0.143   0.930   0.773  -0.713  -1.325   0.416
    0.899   1.424  -0.005   0.562   0.071   0.323  -1.080   0.212   0.413  -0.286
    0.440  -0.186   0.198  -0.929   0.126  -1.165  -0.617  -0.325  -0.234   0.350
   -0.447  -0.372   0.949   0.570  -0.560  -0.908   0.121   1.460   0.250  -1.081
    1.007   1.124   0.709  -0.447   0.119   0.264   0.637  -0.171   0.003   0.533
    0.094   0.022   0.454   0.686   0.962  -0.489   0.178   0.126  -1.736  -0.076
    1.110  -0.216   0.631  -0.667   0.298   0.429  -0.303   0.946   0.054   1.075
   -0.446   0.714  -0.356  -0.031   1.624  -0.727  -0.162   0.258  -0.704   1.103

    1.350  -1.108
   -0.148  -0.094   0.811  -0.158   0.199  -1.229  -0.633   0.126  -0.046  -1.421
   -0.576  -0.099  -0.279   0.927   0.096   0.440  -0.828   0.756   0.326   0.389
    0.058  -0.749  -0.598  -0.450   0.053   0.828   0.776  -0.479  -1.317   0.385
    0.982   1.422   0.047   0.657   0.049   0.306  -1.368   0.310   0.242  -0.109
    0.204  -0.003   0.314  -0.625   0.330  -1.120  -0.446  -0.300  -0.199   0.337
   -0.685  -0.322   0.879   0.961  -0.505  -0.826   0.158   1.082   0.249  -0.975
    0.939   1.048   0.685  -0.279   0.220   0.307   0.728  -0.202   0.121   0.256
    0.012   0.164   0.269   0.517   0.296  -0.466   0.331   0.159  -1.335  -0.192
    1.022  -0.435   0.838  -0.359   0.154   0.007  -0.227   1.003  -0.004   1.265
   -0.737   0.294  -0.484   0.183   1.493  -0.920  -0.314   0.566  -0.863   1.149

    1.400  -1.155
   -0.231  -0.245   0.717  -0.157   0.269  -1.280  -0.801   0.086   0.057  -1.527
   -0.658  -0.161  -0.492   0.545  -0.013   0.476  -0.721   0.829   0.558   0.315
    0.184  -0.644  -0.700  -0.497  -0.304   1.154   0.781  -0.055  -1.155   0.632
    0.792   1.616   0.101   0.291  -0.001   0.314  -1.289   0.622   0.128   0.036
    0.304  -0.213   0.315  -0.484   0.442  -1.346  -0.235  -0.448   0.188   0.604
   -0.350  -0.178   0.871   0.848  -0.641  -0.678  -0.159   0.707   0.429  -1.034
    1.144   0.803   0.523  -0.021   0.465   0.067   0.768  -0.002  -0.292   0.107
   -0.420  -0.077   0.623   0.653   0.123  -0.417   0.421   0.512  -1.379  -0.278
    0.689  -0.219   0.599  -0.439  -0.004   0.077  -0.150   0.888  -0.184   1.226
   -0.655   0.212  -0.516   0.189   1.205  -0.694   0.138   0.384  -0.474   0.868

    1.450  -0.856
   -0.010  -0.425   1.045  -0.137   0.087  -1.199  -0.886  -0.135   0.131  -1.563
   -0.764   0.171  -0.392   0.477  -0.155   0.553  -0.719   0.690   0.265   0.846
    0.426  -0.544  -0.993  -0.230  -0.573   1.380   0.618  -0.208  -1.086   0.491
    0.822   1.876   0.087   0.395   0.130   0.278  -1.521   0.477   0.430  -0.227
    0.817   0.114   0.394  -0.458   0.053  -1.252  -0.290  -0.539   0.473   0.575
   -0.539  -0.033   0.913   0.857  -0.445  -0.568  -0.037   0.716   0.395  -1.073
    1.531   0.647   0.758   0.075   0.868  -0.003   0.583  -0.212  -0.333   0.039
   -0.291  -0.011   0.589   0.342   0.487  -0.274   0.596   0.193  -1.464  -0.009
    0.636  -0.079   0.909  -0.486   0.143   0.320  -0.023   0.631  -0.101   1.393
   -0.550   0.261  -0.631  -0.114   0.879  -0.721   0.030   0.296  -0.444   1.050

    1.500  -0.774
   -0.046  -0.409   1.206  -0.640   0.242  -1.137  -1.023   0.201   0.245  -1.691
   -1.092   0.222  -0.084   0.628  -0.158   0.605  -0.837   0.812   0.097   0.766
    0.288  -0.777  -0.804  -0.275  -0.506   1.395   0.734   0.237  -0.986   0.344
    0.920   1.379  -0.027   0.137   0.346  -0.040  -1.546   0.181   0.280  -0.419
    0.825   0.095   0.498  -0.514  -0.118  -1.284  -0.089  -0.366   0.583   0.671
   -0.653   0.085   0.904   0.636  -0.836  -0.614   0.065   0.638   0.271  -0.897
    1.627   0.477   1.023   0.155   0.486   0.102   0.498  -0.360  -0.002   0.131
   -0.307  -0.060   0.800   0.479   0.137  -0.397   0.758   0.183  -1.459  -0.198
    0.687  -0.228   0.985  -0.519   0.107   0.145  -0.256   0.650  -0.025   1.039
   -0.396   0.346  -0.484  -0.193   0.791  -0.676   0.001   0.201  -0.579   1.098

    1.550  -0.625
   -0.040  -0.334   1.070  -0.565   0.206  -1.024  -1.363   0.180   0.270  -1.604
   -1.002  -0.192  -0.237   0.740  -0.212   0.566  -1.114   0.775  -0.009   0.601
    0.444  -0.717  -0.785  -0.327  -0.083   1.256   0.974   0.322  -0.949   0.041
    0.616   0.978   0.234   0.150   0.362  -0.141  -1.390   0.163   0.391   0.004
    0.893   0.127   0.409  -0.312  -0.157  -1.079  -0.375  -0.416   0.578   0.697
   -0.222   0.079   0.881   0.802  -0.732  -0.610  -0.014   0.659   0.469  -0.623
    1.655   0.358   1.017   0.006   0.166   0.185   0.666  -0.263   0.044   0.215
   -0.294   0.015   0.684   0.679   0.029  -0.456   0.886   0.566  -1.282  -0.067
    0.733  -0.373   1.032  -0.788   0.366   0.398  -0.344   0.564  -0.154   0.862
   -0.477   0.198  -0.525  -0.571   0.909  -0.360  -0.152   0.160  -0.766   1.152

    1.600  -0.294
   -0.169  -0.285   1.052  -0.578   0.205  -0.878  -1.213   0.319   0.461  -1.282
   -0.991  -0.001  -0.134   0.817  -0.003   0.694  -1.184   0.614   0.067   0.453
    0.421  -0.764  -0.696  -0.260   0.207   1.364   0.974   0.301  -0.731   0.152
    0.181   0.845   0.027  -0.048   0.509  -0.408  -0.966   0.454   0.498   0.351
    0.797   0.227   0.470   0.074  -0.408  -0.869  -0.438  -0.393   0.424   0.534
   -0.059   0.143   1.108   0.833  -0.688  -0.955  -0.005   0.371   0.288  -0.513
    1.702   0.321   0.618   0.136   0.197   0.145   0.774  -0.438   0.167   0.116
   -0.196   0.055   0.695   0.804   0.365  -0.605   0.908   0.545  -1.435  -0.650
    0.832  -0.449   1.245  -0.880   0.410   0.329  -0.411   0.380  -0.264   0.681
   -0.396   0.304  -0.132  -0.413   0.956  -0.416  -0.104   0.227  -0.699   0.725

    1.650  -0.082
   -0.239  -0.386   0.945  -0.580   0.254  -0.762  -0.959   0.190   0.522  -1.368
   -0.942  -0.296  -0.214   0.940   0.074   0.808  -1.087   0.626  -0.063   0.408
    0.411  -0.680  -0.726  -0.266   0.356   1.474   0.537   0.432  -1.017   0.098
    0.325   1.084  -0.358   0.259   0.550  -0.410  -0.818   0.465   0.314  -0.071
    0.733   0.386   0.319  -0.363   0.054  -0.831  -0.397  -0.728   0.459   0.549
    0.019   0.264   1.124   0.761  -0.412  -0.564   0.032   0.456   0.064  -0.164
    1.782   0.544   0.484   0.103  -0.047   0.004   0.241  -0.581   0.215   0.198
   -0.456  -0.005   0.692   0.943   0.356  -0.776   1.051   0.394  -1.637  -0.464
    0.649  -0.273   1.024  -0.737   0.628   0.107  -0.187   0.321  -0.089   0.662
   -0.509   0.303   0.038  -0.418   0.928  -0.676   0.052   0.054  -0.776   0.575

    1.700  -0.127
   -0.440  -0.389   0.889  -1.132   0.006  -0.748  -0.832   0.420   0.363  -1.252
   -0.853   0.252  -0.418   0.866   0.080   0.676  -1.056   0.526   0.216   0.626
    0.724  -0.728  -0.642  -0.127   0.300   1.484   0.472   0.618  -1.204  -0.287
    0.480   1.029  -0.586   0.284   0.662  -0.182  -0.947   0.262   0.429  -0.169
    0.802   0.558   0.390  -0.487   0.070  -0.814  -0.800  -0.542   0.481   0.324
    0.170   0.210   1.075   0.753  -0.495  -0.611   0.199   0.462  -0.051  -0.443
    1.831   0.586   0.553   0.242   0.071  -0.140   0.393  -0.407   0.076   0.086
   -0.435  -0.058   0.943   0.791   0.160  -0.384   0.850   0.506  -1.465  -0.513
    0.457  -0.052   1.050  -0.988   0.771   0.242   0.124   0.324   0.320   0.984
   -0.758  -0.185   0.001  -0.208   0.728  -0.850   0.037   0.157  -0.730   0.599

    1.750  -0.200
    0.037  -0.274   0.774  -1.045   0.001  -0.997  -1.088   0.204   0.416  -0.883