
This full-field turbulence file was generated by TurbSim (v1.40, 12-Sep-2008) on 27-May-2021 at 12:57:07.

 | w-comp |  Y  x  Z  | Grid Resolution (Y x Z) | Time-step | Hub Elev | Mean U |
            10    10     15.556     15.556          0.050      80.00     21.00

 Z Coordinates (m):
  -70.000 -54.444 -38.889 -23.333  -7.778   7.778  23.333  38.889  54.444  70.000

 Y Coordinates (m):
  -70.000 -54.444 -38.889 -23.333  -7.778   7.778  23.333  38.889  54.444  70.000

    0.000  -0.982
    0.483   0.649   0.421  -0.246   1.574   0.220  -0.547  -0.872  -0.228   2.140
   -1.800  -0.758   0.657  -0.959   1.494  -1.855   2.818   0.058  -0.396   0.652
    0.777  -1.735  -1.417  -1.124  -0.483   0.162   1.338  -0.630   1.098  -1.396
    0.846  -2.592   0.320  -2.252   1.069  -0.069   1.526   0.295   0.813  -0.875
    0.375   1.761   1.004   0.423   0.990   1.446  -1.197  -2.702  -0.443   0.716
    0.149  -0.321  -0.757  -1.267  -0.372  -1.924   0.699  -1.856  -0.983   2.959
    0.905   0.743  -0.187  -0.760  -0.965  -1.931  -1.700  -0.481  -0.167   2.915
    1.108   1.267  -1.570  -1.884   0.893   1.334  -0.686   0.653   2.125   0.702
   -0.760   1.401   1.503  -1.449  -2.498  -2.550   2.795   3.031  -2.916   0.469
    1.380  -2.003   1.258  -1.142  -0.626  -0.594   2.329  -0.015  -0.878   0.927

    0.050  -0.546
    0.561   0.144   0.001   0.310   1.415  -0.250  -0.997  -1.076  -0.469   0.851
   -1.490  -1.731  -0.498  -1.819   1.369  -1.947   1.885  -1.267  -0.385  -0.351
    1.070  -1.685  -0.405  -0.406  -0.173   0.729   0.583   0.030   1.550  -0.827
    2.276  -3.354   0.000  -2.388   1.343   1.148   1.464   0.065  -0.111  -0.222
    0.909   2.577   1.070   0.302   0.498   0.801   0.386  -3.720   0.267   0.428
   -0.124   0.127  -1.131  -2.159  -0.646  -1.904   1.148  -1.862  -0.398   3.351
    0.995   1.069  -0.045  -0.860  -0.703  -2.558  -0.726  -0.168  -0.250   2.816
    0.754   0.522  -1.152  -0.502  -0.121   1.376  -1.305   0.484   2.282   0.247
   -1.244   2.247   1.690  -0.658  -3.911  -2.791   1.657   0.878  -2.291   0.217
    0.938  -1.575   0.940  -1.418  -0.081  -0.108   1.807   0.687  -0.532  -0.289

    0.100  -0.918
    0.560  -0.209   0.366  -0.182   1.750  -0.310  -0.367  -0.110  -1.276   0.386
   -1.333  -2.242  -1.067  -0.378   2.149  -1.261   1.315  -1.694  -0.502  -0.356
    0.313  -1.466  -0.046  -0.351   0.981   1.104  -0.223   0.692   1.043  -0.704
    1.272  -3.079   0.877  -1.785   1.576   1.083   1.996   0.521   0.331  -0.681
    1.304   2.904   0.268  -0.051   1.084   0.457  -0.362  -2.650  -1.392   0.469
   -0.120  -0.219  -1.659  -2.384  -0.120  -0.363   0.741  -0.919   0.942   3.648
    1.754   0.712  -0.166  -1.122  -1.434  -2.903  -0.110  -0.582  -1.047   1.963
    1.493  -0.058  -1.115  -1.225  -0.686   0.756  -2.667   0.016   1.638   0.137
   -0.904   1.617   1.824  -0.309  -3.600  -1.550   0.939   0.429  -2.389  -0.227
    0.403  -1.053   0.920  -1.103   0.163  -0.348   2.285   1.238  -1.360  -0.409

    0.150  -1.481
    0.841  -0.147   1.753   0.083   2.293  -0.216   0.100  -0.024  -1.951  -0.227
   -0.544  -3.713  -1.639  -0.500   1.949  -1.423   0.569  -1.444  -0.843  -0.515
    1.223  -1.721  -0.859  -0.611   0.860   1.705  -0.504   0.526   0.452  -0.252
    0.003  -3.323   0.193  -1.491   0.782   2.245   1.237   1.164  -0.924  -1.842
    0.846   3.715   0.530   0.285   0.474   1.260  -1.010  -2.717  -1.220   0.124
    0.057  -0.458  -1.724  -2.400  -0.069   0.038   2.092  -1.493   0.181   2.916
    1.500   0.886  -0.939  -0.348  -1.274  -2.561  -0.057   0.141  -0.037   2.037
    1.435  -0.363  -1.393  -1.957  -1.783   1.563  -1.926   1.025   1.489   0.766
   -0.761   1.400   0.291  -0.941  -3.487  -0.945   0.513   1.620  -1.392  -1.619
    0.055  -0.807   1.886  -0.483   1.326  -1.009   1.363   0.874  -1.898  -0.052

    0.200  -1.111
    1.291  -0.821   2.239   0.413   2.828  -0.381  -1.175  -0.526  -1.874   0.254
   -0.284  -3.053  -1.624  -0.190   2.033  -0.850   0.222  -1.773  -1.228  -0.092
    1.389  -1.930  -1.517  -0.348   0.695   1.114  -0.254   0.541   0.603  -0.288
   -0.953  -2.377  -0.133  -0.542   0.574   1.546   0.578   1.777  -0.033  -1.474
   -0.058   3.638   0.307   0.499   0.155   0.744  -1.088  -3.197  -1.057   0.728
   -0.532   0.322  -1.223  -1.460   1.149  -0.308   2.869  -0.003  -0.794   2.604
    1.706   0.163  -1.713  -0.740  -0.579  -2.554  -0.208   0.535  -0.024   1.567
    1.260   0.244  -0.939  -1.438  -0.731   0.908  -2.572   1.115   1.963   0.856
    0.459   1.789   0.697  -0.053  -4.287  -0.049   0.637   1.213  -1.377  -0.128
    1.086  -0.532   1.806  -0.117   1.896  -0.675   1.606   0.039  -0.759  -1.023

    0.250  -1.210
    2.534  -0.856   2.760   1.267   2.195  -0.381  -1.934  -0.208  -1.974  -0.503
   -0.559  -2.385  -1.631  -0.840   1.495  -0.776  -0.014  -0.691  -1.486  -0.123
    1.627  -1.456  -0.706  -0.801   0.694   0.749  -0.087   0.409   1.956  -0.652
   -0.836  -2.181  -0.126  -0.114  -0.132   1.786   1.346   0.860   0.640   0.023
   -0.368   2.789  -0.514   0.427   0.406   1.184  -0.698  -3.786  -0.509   1.285
   -0.327  -0.444  -1.284  -1.325   1.032  -0.698   2.622  -0.655  -1.109   2.077
    2.558  -0.121  -2.043  -1.730  -0.163  -2.334  -0.338   0.145  -0.651   1.311
    1.199   0.970  -2.723  -1.645   0.403   0.188  -1.695   0.839   1.644   0.671
    0.890   1.942   1.214  -0.006  -3.070   0.006   1.025   1.293  -1.885  -0.546
    0.257   0.117   0.639  -0.569   2.045  -1.027   1.837  -1.364  -0.620  -1.894

    0.300  -0.576
    1.804  -0.720   2.959   2.200   2.341   1.391  -1.635   0.543  -2.158  -0.070
   -0.359  -1.851  -0.835  -2.316   0.540  -0.258   0.651  -0.471  -2.146   1.415
    1.734  -1.210  -0.478  -0.653   1.226  -0.118   0.802   1.068   2.165   0.118
    0.148  -2.717   0.722   0.298   0.431   2.287   1.516   0.586   0.874  -1.494
    0.132   3.073   0.142  -0.130   0.159   2.084  -1.013  -3.075   0.148   0.937
   -1.054  -2.237  -0.700  -1.296   0.641   0.033   2.356  -1.179  -1.410   2.198
    2.197  -0.492  -1.793  -1.825   0.344  -2.702   0.449   0.086  -1.309   1.048
    1.722   0.406  -3.135  -2.177  -0.558   0.434  -1.814   0.422   2.212   1.062
    0.723   0.688   1.010   0.764  -2.713  -0.507   1.347   1.180  -2.394  -0.172
   -0.209  -0.168   0.555  -0.472   1.750  -0.485   2.182  -0.369  -0.246  -1.911

    0.350  -0.206
    1.557  -0.972   2.552   1.098   3.028   0.875  -1.404  -0.222  -3.098  -0.232
    0.099  -1.960  -0.003  -1.522  -0.102  -0.995   0.940   0.595  -2.158   2.579
    1.944  -1.649  -0.085  -0.818   1.423   0.152   0.001   0.612   1.852   0.090
   -0.010  -2.391   0.884  -0.542   0.221   1.628   1.572  -0.483   0.416  -2.639
    0.565   1.891   0.859   0.501  -0.517   2.087  -0.528  -2.545  -0.275   0.770
    0.855  -1.814  -0.672  -0.840  -0.600  -0.589   3.377   0.095  -1.536   1.895
    1.062  -1.023  -0.991  -2.073  -0.019  -2.914   0.637  -0.491  -1.058   0.581
    1.478  -0.624  -2.372  -2.617  -0.611   0.423  -1.651   0.495   1.129   1.163
    1.187   0.555   2.202   0.677  -2.809  -0.141   1.525   1.921  -2.261  -0.572
    1.951   0.161   0.902  -0.562   1.315  -0.569   1.675  -0.366  -0.914  -2.133

    0.400  -1.117
    0.699  -0.251   1.096   0.628   2.809   0.009  -1.597  -0.691  -3.374  -0.905
    0.828  -1.258   0.737  -1.393   1.126  -1.995   1.159  -0.697  -2.071   2.496
    2.393  -2.175  -0.123  -1.389   0.999   0.026  -0.213   0.550   1.859   0.344
    0.359  -2.317   0.901  -1.174   0.638   1.988   1.806  -1.271  -0.045  -1.129
   -0.700   1.017   0.849  -0.261   0.178   2.638  -0.531  -2.094  -1.488   0.794
    0.383  -1.564  -0.177  -0.855  -0.925  -0.490   2.557  -1.213  -1.417   0.696
    0.692  -0.242  -0.382  -2.100   0.266  -3.204   1.369  -0.325  -0.235   0.966
    1.404  -0.992  -1.970  -1.388  -0.704   0.749  -1.742   0.002   1.857   2.057
   -0.676  -0.200   2.666   1.141  -2.420  -0.780   0.960   1.189  -2.709  -0.804
    2.035  -0.363  -0.170  -1.849   0.485   0.321   1.008  -0.969  -1.943  -2.479

    0.450  -1.079
    1.526   0.071   0.350   0.292   1.582   0.885  -1.830  -0.020  -4.106  -1.924
    0.710   0.255  -0.292  -1.767   2.093  -2.077   0.840  -1.152  -2.085   2.408
    2.031  -3.553  -0.224  -0.544   2.558   0.835   0.210  -0.752   0.935  -0.819
    0.808  -2.553   1.196  -1.253   0.702   1.036   1.491  -0.947  -0.019  -0.339
   -0.707   2.037   0.174   0.708   1.425   3.173  -0.702  -2.128  -0.585   0.478
    1.178  -1.880   0.168  -0.071  -0.462  -0.098   2.825   0.116  -1.282   1.361
    0.945  -0.510  -0.542  -1.487   0.299  -3.312   1.858  -1.143   0.740   2.435
    0.345  -0.086  -1.833  -2.320   0.008   0.839  -1.872  -0.148   2.011   1.660
   -1.320  -0.320   2.744   1.445  -2.320  -1.077   1.102   1.548  -3.053  -0.456
    1.647  -0.301   0.223  -1.079   0.165  -0.246   1.907  -1.821  -1.528  -2.706

    0.500  -0.174
    1.165  -0.800   0.584   0.459   1.689   1.210  -0.948   0.116  -4.234  -1.408
    0.523   0.164   0.286  -1.311   1.463  -1.580   0.790  -0.026  -1.495   1.904
    1.121  -3.292  -0.386  -0.843   2.331   1.436   1.011  -0.704   0.510  -0.421
    1.424  -1.155   1.059  -2.128   0.805   0.920   2.406  -0.157   0.377  -1.022
   -0.789   2.147   0.120   0.810   0.611   3.305  -0.967  -3.305  -0.223   0.728
    0.825  -2.122   1.362  -1.344  -0.518   1.257   2.756   0.250  -0.903   1.736
    1.025  -0.595  -1.630  -1.326   1.387  -3.284   2.836  -0.339   0.934   2.124
    0.264  -0.180  -2.277  -1.954  -0.304   1.793  -2.496  -0.919   1.393   1.833
   -0.210  -0.603   2.057   1.089  -2.134  -2.424   1.034   1.323  -3.012  -0.525
    0.236  -0.524   0.474  -0.978   1.792   0.144   2.217  -2.604  -0.976  -3.146

    0.550  -1.003
    1.342  -1.473  -0.171   0.806   1.541  -0.106  -0.820  -0.084  -4.756  -0.509
    0.332  -0.087   1.351  -1.708   1.716  -1.814   0.841  -0.614  -0.966   2.217
    1.073  -3.612  -0.462  -1.142   1.828   1.308   1.876   0.263  -0.968  -0.355
    1.009  -0.917   1.070  -1.147   0.206   0.131   1.717   0.365   0.695  -1.392
   -0.608   1.762  -0.522   0.895   0.302   3.622  -1.298  -4.043   0.048   1.203
    0.498  -2.299   1.409  -1.649  -0.307   2.045   2.265  -0.151  -1.200   1.272
    1.470  -0.915  -1.160  -1.614   2.122  -3.610   2.675   0.152   0.128   2.021
    0.773   0.018  -2.836  -2.022  -0.586   1.700  -2.946  -0.995   1.757   1.471
   -0.089  -0.264   1.987   1.155  -0.497  -2.053   1.704   1.455  -2.231  -0.063
   -0.542  -0.941   0.427  -1.343   3.369  -0.232   2.670  -3.405  -0.750  -3.461

    0.600   0.050
    1.778  -1.110   0.920   0.620   2.072  -0.282  -1.725  -0.741  -4.124  -0.495
    0.076   0.006   1.397  -2.139   0.420  -1.235   2.206  -1.795  -0.702   2.873
    2.114  -3.039   0.345  -1.234   1.667   0.723   1.694  -0.352  -1.399  -0.103
    2.201  -0.416   0.545  -1.339   1.077   0.856  -0.241   0.635   1.071  -0.517
   -1.257   0.814  -0.881   1.098  -0.740   2.704  -1.824  -4.908  -0.737   1.736
    0.282  -1.149   0.789  -1.297  -0.426   1.702   2.562   0.318  -0.751   0.766
    1.455  -0.374  -2.027  -2.084   2.075  -3.374   0.750  -0.227  -1.435   0.521
    0.315   0.118  -2.301  -2.436  -0.327   0.604  -2.891  -0.131   1.115   0.177
    0.682  -0.003   1.275   0.781   0.126  -1.188   0.631   1.071  -3.240   0.518
    0.169  -0.438   0.494  -1.068   2.696  -0.959   2.255  -3.621  -0.823  -2.308

    0.650   0.000
    1.580  -0.415  -0.397   0.929   2.608   0.175  -1.629  -1.141  -2.957  -1.607
   -0.283  -0.964   2.879  -1.619  -0.003  -1.041   2.507  -1.762  -0.085   2.641
    2.140  -1.988   0.267  -0.895   1.307   2.028   2.662  -0.698  -0.471   0.205
    1.429  -2.163   0.546  -0.446   1.200   1.272   0.483   1.526   0.718  -0.496
    0.787   0.663   0.204   1.581  -1.346   3.741  -1.134  -3.594  -1.117   1.591
   -0.610  -1.211   1.105   0.246  -0.144   1.794   1.323   0.443  -1.380   1.249
    1.681  -0.824  -1.726  -2.228   1.653  -2.623   0.674  -0.321  -1.134  -0.542
    2.066   0.967  -1.561  -1.763  -1.101  -0.332  -2.444   0.184   0.655   0.971
    1.312   1.115   0.968   0.055  -0.773  -0.593   0.729   1.538  -2.944   0.757
    0.216  -0.429  -0.653  -0.111   2.953  -0.983   1.882  -1.693  -1.077  -2.744

    0.700  -1.565
    1.234  -1.011  -0.064   1.114   3.585   0.041  -1.800  -1.871  -2.934  -1.454
   -0.365  -1.654   2.744  -1.786  -0.689  -1.528   2.587  -0.761  -0.449   2.611
    1.266  -1.069   0.228  -0.020   0.616   1.943   2.648  -0.585  -1.507   0.697
    0.990  -2.351   1.348  -0.659   1.110   1.295  -0.065   1.868   1.141   0.129
    0.182   1.023  -0.093   0.666  -0.522   3.126  -0.606  -2.991  -0.650   1.780
   -0.332  -0.602   1.898   0.037  -0.823   1.666   0.944   0.145  -2.945   1.134
    1.558  -0.755  -0.829  -1.121   1.865  -1.977   0.668   0.055   0.655  -0.260
    2.200   1.063  -1.498  -1.258  -0.952   0.404  -2.255   0.032   0.012   1.757
    0.865   1.704   0.106  -0.181  -0.127   0.226   0.949   0.356  -2.713   1.488
    1.117   0.068  -1.108   1.026   4.662  -1.423   1.950  -2.271  -1.307  -2.359

    0.750  -0.986
    0.825  -0.896  -0.002   0.976   2.966   0.543  -1.430  -1.934  -1.599  -1.556
   -0.718  -0.941   1.231  -1.485  -0.540  -1.716   1.719   0.155   0.337   1.469
    1.665  -1.874   1.378   0.343   1.489   2.940   2.653  -0.926  -2.522   0.358
    0.888  -2.831   0.519  -1.467   1.727   0.885   0.069   1.161   1.307   0.652
    0.102   0.223  -0.081   0.700  -0.348   2.448  -0.550  -2.236  -0.628   1.766
    0.982  -0.027   1.514  -0.527  -1.197   2.034   2.306  -0.895  -3.849   0.656
    1.742   0.117  -0.659  -0.650   2.215  -2.332   1.098   0.839   0.851  -0.661
    1.857  -0.294  -2.647  -0.969  -0.924   0.487  -2.016   0.325   0.974   2.641
    1.699   2.167   0.771   0.781  -0.920   1.344   0.246   0.761  -2.525   2.496
    0.641  -0.338  -1.090   0.725   2.581  -1.235   1.337  -1.868  -1.817  -2.854

    0.800  -1.983
    0.539   0.000   0.087   0.606   2.284   0.436  -0.489  -1.470  -2.588  -1.340
   -0.070  -0.336   0.548  -1.165  -0.399  -2.748   1.708  -0.227   0.493   1.852
    2.726  -2.280   1.407   0.877   1.208   1.349   2.674   1.194  -2.471   0.366
    1.715  -2.981   0.047  -1.149  -0.182   1.573   0.608  -0.025  -0.151   0.521
    0.128  -1.138   0.187   1.888   0.653   1.767  -0.345  -2.026  -0.717   1.033
    1.618  -0.475   1.568  -0.753  -0.904   1.935   1.342  -0.801  -3.265   0.069
    0.495   0.392   0.197  -0.538   1.134  -1.324   1.656   0.857   0.381  -0.899
    1.033  -0.242  -2.225  -2.572  -0.417   0.828  -1.525   0.468   0.390   1.909
    2.305   1.622   1.214   0.701  -1.759   0.916   0.582   0.882  -2.089   2.012
    1.072   0.943  -0.385  -0.402   2.549  -1.048   2.194  -2.183  -2.419  -2.127

    0.850  -0.409
    0.733   0.458   0.038   0.487   2.356   1.219  -0.058  -2.284  -2.185  -1.471
    0.765  -1.144   0.254  -0.370  -0.532  -2.335   1.150  -0.962   0.891   1.863
    3.334  -2.853   1.454   0.075   1.698   0.432   2.277   0.515  -0.830   0.917
    1.826  -2.843   0.645  -1.501  -1.205   1.311  -0.449   0.547  -0.688   0.265
   -1.223  -0.171   0.742   1.530  -0.547   2.758  -0.125  -2.425  -0.888   1.377
    1.392  -0.656   1.982  -0.140   0.205   2.101   1.148  -1.963  -3.916   1.910
    0.120   0.297   0.075  -1.631   1.952  -0.851   1.768   1.239  -0.285  -0.717
    1.980   0.810  -1.459  -1.881  -1.232   0.487  -1.808  -0.590   0.238   1.925
    2.090   2.582   0.567   0.703  -0.285  -0.291   0.455  -0.224  -1.948   0.826
    2.010   0.143  -0.589  -1.567   3.118  -0.902   1.557  -2.872  -1.585  -2.828

    0.900  -0.309
    0.928   0.259   0.332   0.147   2.121   1.442  -0.323  -0.712  -2.492  -1.230
    1.530  -0.343   1.330  -0.721  -0.173  -2.331   0.639   0.775   1.312   2.607
    2.686  -2.137   0.313   0.264   1.195  -0.038   2.674   0.621   0.816   1.388
    1.779  -2.317   1.540  -0.930  -1.192  -0.447  -0.316   0.170  -1.120   0.354
   -0.360  -0.273   0.803   1.573  -0.225   2.833   0.560  -2.009  -1.141   1.229
    0.743  -0.924   2.430  -0.291   0.070   2.575   0.867  -1.607  -4.202   2.225
    0.535   0.647   0.022  -2.467   1.545  -2.488   1.697   1.491  -0.131  -0.292
    1.832   1.359  -1.252  -1.519  -1.471   0.784  -1.769  -0.943  -0.139   1.403
    0.943   1.662   0.593   1.474  -0.603  -0.491   0.192  -0.135  -2.402   0.867
    1.298  -0.159   0.053  -0.740   2.666  -1.483   0.865  -2.986  -0.670  -1.893

    0.950   1.132
    0.360   0.465  -0.181  -0.591   1.682   1.928  -1.039  -1.111  -2.920  -0.946
    2.239  -0.974   0.935  -0.354  -0.772  -2.389  -0.426   1.121   0.081   1.720
    4.420  -2.110   0.256  -1.176   0.509  -0.476   3.316   1.302   0.806   1.786
    2.469  -1.210   1.232   1.510  -0.943   0.025  -0.516   0.408  -1.273   1.817
    0.104  -0.504   0.991   1.390  -0.758   1.671   0.848  -2.043  -1.372   1.904
    0.388  -0.611   2.532  -0.597  -0.125   3.070   1.433  -1.695  -3.859   1.116
    0.434   0.560   0.480  -2.664   1.099  -2.314   0.988   1.332  -0.278   0.336
    1.533   1.276  -0.768  -0.963  -1.898   0.545  -2.312  -0.946   0.030   1.347
    0.535   0.720   1.611   1.590  -1.252  -0.250   1.029   1.053  -2.351   0.656
    1.048   0.172   0.076  -0.400   2.724  -1.061   0.214  -3.387  -0.037  -1.521

    1.000   1.100
   -0.502   0.305  -0.281   0.147   1.573   1.561  -1.855  -1.904  -4.075  -1.305
    1.092  -0.836   0.935  -0.179   0.632  -3.279  -0.321   2.269  -1.463   1.417
    4.269  -2.702   1.385  -0.752   1.400  -1.513   1.930   0.433   0.692   2.260
    1.486  -1.066   1.138   1.458   0.241   0.815  -0.352  -0.148  -1.643   1.532
   -0.321   0.636   0.804   1.710  -2.082   0.215   1.342  -2.742  -1.984   2.676
    0.528  -0.407   1.237  -1.054  -0.757   1.184   1.548  -1.977  -2.750   0.438
    1.105   1.072  -0.173  -3.240  -0.052  -1.484   0.880   1.903  -1.139   0.355
    1.588   1.327  -0.343  -1.221  -1.521   1.127  -3.208  -1.181  -0.857   1.980
   -0.181   1.040   2.320   1.095  -1.199  -0.040   1.657   1.101  -1.240   2.263
    1.072   0.665  -0.471  -0.863   3.041  -0.395  -0.808  -4.884   0.503  -1.998

    1.050   0.432
   -1.302  -0.526   0.148   0.382   2.087   2.001  -2.399  -1.717  -3.757  -1.927
    1.638  -1.550   1.877  -0.573  -0.253  -2.354   0.672   2.812  -1.404   2.509
    3.831  -2.712   1.002  -0.611   0.188  -0.929   0.546   0.020   1.373   1.974
    0.533  -0.890   1.632   0.666   0.090   1.464   0.640  -0.503  -2.280   1.462
   -1.028   0.004   0.867   1.695  -1.585  -0.044   0.291  -2.423  -1.639   2.592
    1.891  -1.845   0.891  -0.929  -1.257   0.924   0.450  -2.295  -2.009   0.668
    1.359  -0.119   0.389  -3.687   0.328  -2.270   0.990   2.374  -0.630  -0.297
    1.726   1.079  -0.223  -1.900  -2.316   1.823  -3.950  -1.946  -0.607   2.343
    0.276   1.464   2.329   1.421  -1.206   0.389   1.988   0.932  -1.286   2.067
    2.224   1.215  -0.506  -0.439   1.938  -1.034  -0.315  -3.941   0.123  -1.929

    1.100   1.560
   -2.254  -0.006  -0.582  -0.704   2.153   2.335  -1.325  -1.881  -2.890  -1.650
    1.952  -1.421   1.766  -1.024  -0.436  -1.629   0.124   0.758  -1.551   1.968
    3.005  -1.859   0.863  -0.863  -0.464  -0.416   1.468   0.684   1.510   1.931
    0.391  -1.261   1.892   0.656  -0.660   1.351   0.663  -0.838  -2.297   1.202
   -1.154   1.433   0.356   1.414  -0.952  -0.206   1.019  -2.189  -1.255   3.138
    2.387  -1.229   0.824  -1.367  -1.167   1.030   1.738  -2.558  -0.677   0.936
    1.939  -0.056   1.322  -2.602   0.611  -1.723   0.362   2.886   0.078  -0.104
    0.772  -0.012   0.087  -1.262  -1.773   2.386  -2.424  -2.555  -1.454   2.565
    0.910   0.573   1.603   1.882  -0.762   0.754   1.707   1.204  -0.992   0.722
    1.873   1.616   0.524   0.124   1.646  -1.062  -0.016  -4.421  -0.403  -0.637

    1.150   1.056
   -1.660  -0.052  -0.650  -1.315   1.190   2.003  -1.250  -1.805  -2.306  -0.673
    2.395  -1.938   1.552  -0.720   0.104  -1.248  -0.367   0.573  -1.422   1.644
    2.275  -1.992   2.306  -0.450   0.434   0.392   0.567   0.961   2.063   3.444
    0.398  -1.007   2.755   1.244  -1.331   0.982  -0.110  -0.300  -0.914   2.156
   -1.627   0.798  -0.535   1.222  -1.036   0.510   0.351  -2.018  -0.477   2.605
    1.518  -1.125   2.435  -1.364  -0.519   1.558   1.642  -2.128  -1.320   1.052
    2.168   0.680   1.186  -1.345   0.481  -0.960   0.076   2.480   0.355  -0.474
    1.964  -0.053  -0.704  -0.582  -0.941   1.907  -1.378  -3.182  -1.728   2.807
   -0.038   0.556   2.717   1.569  -0.408  -0.095   1.030   0.900  -0.942   0.434
    1.692   2.709   1.077   0.159   1.094  -1.650   0.434  -2.620   0.261   0.629

    1.200   1.557
   -1.843  -0.415  -1.012  -0.913   0.860   2.450  -0.918  -2.378  -1.296   0.294
    1.613  -2.066   2.256  -0.711  -0.513  -0.376   0.024   1.965  -1.025   1.189
    2.001  -2.161   1.218  -0.242   0.856   0.784   0.335   1.626   1.555   3.059
    0.765  -1.882   1.966   1.373  -1.427   1.173  -0.384   0.005  -0.053   1.948
   -1.930   0.418  -0.809   1.185  -0.866   0.570   0.380  -1.814   0.153   1.636
    2.409  -0.214   2.264  -1.369  -2.110   2.267   1.122  -4.106  -1.022   0.688
    2.619   1.491   0.759  -1.018  -0.868  -1.846   0.547   0.884   0.460  -1.178
    1.028  -0.708  -1.717  -0.613  -0.979   2.472  -1.532  -2.778  -1.848   2.907
    0.165   0.272   2.322   1.605  -1.726  -1.556   0.200   0.585  -1.436   1.090
    0.208   2.194   1.633   0.140   0.235  -2.076   0.557  -2.591  -0.196  -0.198

    1.250   1.312
   -0.822  -0.812  -1.258   0.211  -0.080   1.674  -0.080  -2.266  -1.796   0.045
    1.170  -2.175   3.199  -0.948  -1.630  -0.002  -0.727   1.018  -0.793   1.453
    0.963  -2.455   0.430  -0.810   0.458  -0.573   0.555   0.940   1.164   2.375
    1.154  -1.969   1.190   2.659  -1.273   1.596  -0.384  -0.627  -1.115   2.416
   -1.196   0.649   0.499  -0.164  -0.057   0.652   0.280  -1.299   0.837   2.560
    1.809  -0.123   1.836  -1.907  -1.557   1.229   0.689  -4.959  -0.875  -0.025
    2.415   1.361   0.766  -0.510  -0.370  -1.273  -0.606   1.440   0.362  -0.404
    0.041  -0.859  -1.869  -0.428  -2.488   2.976  -1.766  -1.687  -2.119   1.463
   -0.149   0.242   1.517   1.130  -1.420  -0.585  -0.507   0.847  -2.537   0.833
   -0.174   1.635   1.825  -0.583   0.742  -2.657   0.136  -2.231  -0.089  -1.340

    1.300   1.733
   -0.770  -1.453  -1.870   0.880   1.030   1.746   0.759  -2.527  -1.454   0.323
    2.615  -2.912   3.111  -0.370  -0.993   0.316  -1.647   1.579   0.639   1.258
    1.112  -2.460   1.722  -1.010   0.497   0.486  -0.295  -0.023   0.878   1.980
    1.816  -3.446   1.300   2.396  -0.587   0.014  -0.488  -0.180  -1.185   1.890
   -0.661   0.044   0.916   0.206  -0.297   0.761  -0.590  -1.035   0.308   3.043
    1.175  -1.127   1.153  -2.476  -0.901   0.785   1.782  -3.124  -1.041  -0.385
    1.966   1.857  -0.098   0.873   0.609  -0.845  -0.949   2.139  -0.127  -0.404
    0.746  -0.267  -2.266  -0.912  -1.962   3.125  -0.991  -2.424  -1.404   1.578
   -0.642   0.221   1.703   0.551  -1.062  -0.009   0.817   1.075  -2.473   0.201
   -0.343   1.341   1.219  -0.688   0.804  -3.216  -0.370  -1.295  -0.243   0.155

    1.350   2.159
   -0.734  -1.314  -2.967   1.574   1.525   1.787   1.050  -2.099  -0.601   0.119
    2.938  -2.679   2.566  -0.786  -0.261  -0.517  -0.705   0.711   1.960   1.011
    0.917  -1.392   2.087  -1.133   2.160  -0.599  -0.964  -0.136   1.350   2.007
    0.932  -3.440   0.122   1.611  -0.095  -1.743  -0.424  -0.407  -1.858   2.406
   -0.566   0.099   1.056   1.577   0.836   0.825  -1.445  -0.856  -1.797   2.806
    0.805  -0.250   0.253  -1.942  -1.103   1.187   0.410  -3.830  -1.351  -0.426
    1.338   0.774  -0.517   0.368   0.462  -1.142  -1.203   1.484   0.430  -0.840
    0.527  -0.275  -1.418  -0.547  -2.016   2.491  -1.543  -2.344  -1.193   0.562
   -0.674  -0.365   0.563   0.393  -1.224   1.049   0.977   0.394  -2.476   0.362
   -0.587   0.932   2.164   0.047   0.521  -3.369  -0.933  -1.755  -0.388   0.374

    1.400   1.777
   -0.249  -1.029  -3.116   0.111   1.650   1.377   0.266  -1.937  -0.420  -0.868
    2.809  -2.378   2.389  -0.099  -1.709  -0.203  -0.920  -0.199   2.440   2.244
    1.194  -1.398   2.837  -1.070   2.252   0.385  -0.850   0.389   1.127   2.887
    1.663  -3.349   0.478   0.971  -1.223  -0.765  -0.659   0.085  -1.584   3.288
    0.657  -0.522  -0.262   1.300   0.239   0.312  -2.322  -0.889  -1.935   2.561
    0.846  -0.339   0.712  -1.012  -0.790   0.050   0.138  -4.696  -0.812   0.304
    1.802   0.855  -0.343   0.842  -0.397  -0.741  -1.695   2.098   0.785  -1.120
    1.385  -0.522  -1.968  -0.702  -2.436   1.603  -0.099  -1.748  -1.239   0.084
   -0.166  -0.199  -0.335   1.025  -0.797   2.144   0.062  -0.451  -2.047  -0.035
   -0.394  -0.080   1.851  -0.278   0.253  -2.215  -1.610  -2.267  -0.412  -0.029

    1.450   1.569
   -0.008  -0.940  -2.871  -0.938   2.949   0.927   0.240  -0.882  -1.228   0.007
    3.095  -1.212   2.736   0.183  -2.433   0.078  -0.347  -0.938   2.359   2.857
   -0.089  -0.537   2.869  -1.289   1.270   0.676  -0.883   0.452   1.071   3.174
    1.018  -2.370   1.143   0.501  -0.889  -0.779  -0.375  -0.799  -0.982   3.319
   -0.284  -0.291  -0.544   0.929   0.445   0.244  -2.313  -1.604  -1.469   3.210
    1.468  -1.168   1.244  -0.901  -0.847   0.118  -0.231  -3.527  -0.495   0.789
    2.628   0.713  -0.551   0.999   0.825   0.154  -1.413   0.945   0.193  -1.608
    1.550  -0.930  -0.387  -1.485  -1.282   1.224  -0.426  -1.423  -0.922   0.613
    0.811  -0.012   0.240   0.721  -0.057   1.802  -0.666   0.820  -2.663  -0.576
   -0.176  -1.686   1.368  -0.134   0.415  -1.989  -2.317  -0.908  -0.630  -0.824

    1.500   1.225
    0.679  -0.596  -1.639  -0.361   2.090   0.578  -0.787   0.491  -1.215  -0.962
    1.250  -1.364   2.771   0.553  -2.657  -0.484  -0.416  -1.067   2.638   2.625
   -0.375  -0.369   2.453  -0.284   1.623   1.667  -0.581   0.231   1.349   1.099
   -0.045  -2.074   0.785   0.503   0.234  -0.754  -0.088  -1.045  -1.373   2.992
    0.383  -1.362   1.025   0.008   0.419  -0.491  -1.784  -1.358  -1.971   3.571
    0.678  -0.892   2.274  -1.866  -0.779  -0.155  -0.718  -3.195   0.693   1.442
    2.017   1.603  -0.053   0.819   0.577   0.074  -2.085   1.051  -0.806  -1.203
    1.619  -0.301   0.169  -1.826  -1.523   1.103  -1.163  -1.726  -0.867   0.794
    0.821  -0.372   0.110   1.128   0.495   2.349  -0.601   0.058  -2.641  -0.293
    1.289  -2.965   1.083   0.593   0.263  -1.516  -1.748  -1.622   0.275  -2.143

    1.550   0.659
   -0.776   0.127  -1.545  -0.578   2.530   1.167   0.148   0.860  -0.734  -0.503
    1.647  -0.968   2.875   2.216  -2.237  -0.262  -1.260  -0.661   0.950   2.246
   -0.087  -0.509   2.618   0.775   1.541   1.416  -1.541   1.086   0.893   1.146
    0.600  -1.872  -0.103   0.246   0.172   0.200   0.711  -0.872  -1.126   3.013
   -0.121  -1.128   1.575  -0.893   0.789  -0.528  -1.182  -2.145  -0.766   4.028
    1.663  -1.449   1.428  -1.792   0.045  -1.059  -0.966  -4.229  -0.482   0.880
    2.842   1.011   0.100   1.040   0.497  -0.724  -1.445   1.231  -0.273  -0.776
    1.650  -0.244  -1.671  -0.955  -1.168   1.657  -2.043  -1.762  -0.295   1.250
    1.445  -0.178  -0.472   1.552   0.846   2.233  -1.385   0.559  -1.456  -0.641
   -0.488  -1.796   0.340  -0.217   0.273  -2.286  -1.231  -0.665   0.966  -2.190

    1.600   1.347
   -0.219   0.079  -2.863  -1.236   1.319   2.497  -0.173   0.441   0.341  -0.782
    1.764  -1.084   1.763   2.021  -1.672   0.688  -1.844  -0.859   0.231   1.705
   -0.657  -0.367   2.681   0.368   1.611   0.796  -1.692   0.740   1.271   1.318
   -0.153  -1.686   0.132   0.310   0.793   0.431   1.309  -1.171  -1.633   3.731
   -0.231  -1.423   1.783  -0.231   0.597  -0.549  -0.721  -1.315  -1.248   3.155
    0.865  -1.854   1.155  -1.486  -0.766   0.122  -0.080  -3.977   0.702   0.560
    2.484   0.861  -1.188   1.294   0.138  -0.503  -1.674   0.242   0.423  -0.752
    1.035   1.570  -1.354  -1.503  -0.183   1.587  -1.056  -1.788   0.312   1.482
    0.662   0.091  -1.306   2.116   1.079   1.291  -0.284   0.232  -1.584  -1.021
   -1.100  -2.121   1.673  -0.092  -0.177  -2.857  -0.932  -0.010   0.503  -2.495

    1.650   2.444
   -0.994  -0.461  -3.211  -1.933   1.711   0.780   0.223   1.467   0.855  -1.080
    2.480  -0.575   2.151   2.970  -2.403   1.375  -2.636  -0.180   1.014  -0.071
    1.168   0.145   3.493   0.730   1.202   0.121  -0.746   1.042   0.889  -0.035
   -0.287  -2.349  -0.270  -0.040   1.122  -0.288  -0.164  -1.098  -2.681   2.465
    0.382  -1.602   1.741   1.048   0.930  -0.030  -0.483  -1.140  -0.843   3.272
   -0.078  -1.194   0.614  -0.895  -0.206   0.389   0.954  -2.857   0.790   0.565
    2.643   0.992  -0.248   1.349   0.793  -0.361  -1.550   1.003   0.389  -1.387
    1.466   1.384   0.127  -0.408  -0.524   1.189  -1.750  -1.375   1.005   1.852
    0.893   1.641  -0.936   3.680  -0.127   1.690  -0.999  -1.217  -1.073  -2.008
   -0.758  -1.580   2.083   0.915  -0.521  -2.567  -1.082   0.052  -0.014  -1.131

    1.700   2.276
   -0.948  -0.467  -3.226  -1.789   2.773   1.430   0.142   1.423   0.226  -1.055
    1.409  -0.269   2.187   2.645  -1.847   0.607  -0.821  -0.041   1.650  -0.839
    0.497   0.156   3.434   0.442   1.497   0.803  -0.853   0.661   1.044   0.386
   -0.458  -2.121  -0.497   0.899   0.092  -0.302   0.113  -0.957  -2.710   1.599
    0.121  -1.094   1.761  -0.127  -0.085   0.668   0.252  -1.127  -0.807   2.630
   -0.944  -1.173   0.238  -0.233  -0.304   0.634   0.524  -2.348   1.079   0.574
    2.250   0.524  -0.399   1.237   0.797  -1.767  -1.332   1.741   0.590  -1.096
    2.901   1.557  -0.065   0.664  -0.725   1.839  -1.600  -1.583   0.315   2.366
    2.100   1.846   0.255   3.452  -0.275   1.199  -1.074  -1.439  -0.426  -3.150
    0.131  -1.267   1.735   0.647  -1.026  -1.654  -1.378  -0.188   1.134  -0.547

    1.750   1.312
   -1.085  -0.820  -3.129  -1.448   1.980   0.380  -0.332   1.253   0.721  -0.558