
This full-field turbulence file was generated by TurbSim (v1.40, 12-Sep-2008) on 27-May-2021 at 12:56:55.

 | u-comp |  Y  x  Z  | Grid Resolution (Y x Z) | Time-step | Hub Elev | Mean U |
            10    10     15.556     15.556          0.050      80.00     17.00

 Z Coordinates (m):
  -70.000 -54.444 -38.889 -23.333  -7.778   7.778  23.333  38.889  54.444  70.000

 Y Coordinates (m):
  -70.000 -54.444 -38.889 -23.333  -7.778   7.778  23.333  38.889  54.444  70.000

    0.000  18.891
   18.588  18.299  21.177  18.793  17.245  16.313  17.583  20.753  20.100  20.540
   16.578  15.841  18.808  19.989  18.056  18.711  12.641  16.172  17.145  17.592
   15.844  17.218  19.532  19.444  19.573  21.182  16.785  16.673  14.138  14.359
   14.767  14.160  17.849  21.021  20.227  16.833  19.375  17.254  13.147  14.423
   14.553  13.425  15.886  18.006  20.612  16.331  17.825  14.455  14.922  16.587
   14.793  11.926  14.087  20.052  18.101  18.723  18.095  18.970  17.400  17.325
   16.248  12.243  14.511  15.083  16.455  15.466  14.323  17.039  19.034  17.844
   13.879   9.829  13.508  13.901  14.804  12.357  15.472  16.270  17.469  16.102
   12.706  16.129  11.113  15.152  10.519  12.301  10.464  11.973  13.017  14.007
    6.719   7.889   9.770  12.048   9.981  10.325   6.385   6.352  10.176   9.512

    0.050  19.498
   18.067  17.576  21.181  19.487  18.267  15.635  18.301  20.908  19.755  19.887
   15.924  15.604  18.071  19.935  18.797  18.245  13.840  16.783  17.856  17.014
   15.525  16.826  20.155  19.081  18.996  21.313  17.052  16.677  15.886  14.286
   13.942  13.878  18.839  21.771  20.175  17.675  19.718  18.187  13.124  13.875
   14.623  13.758  15.879  17.788  21.507  16.653  16.942  15.016  14.650  16.120
   15.656  12.266  14.301  20.266  18.312  18.611  20.073  19.482  17.582  18.331
   16.445  12.901  14.720  13.383  15.924  16.134  15.229  16.775  19.850  18.034
   13.405   9.463  12.973  14.148  15.240  12.633  16.100  16.301  17.524  16.854
   13.084  16.066  10.418  14.946  10.012  12.362   9.996  11.821  13.300  13.376
    7.153   8.414   9.474  11.958   9.803   9.490   6.006   5.802   9.909  10.101

    0.100  20.149
   17.465  17.884  20.555  20.016  18.745  15.941  18.806  20.701  19.524  19.844
   16.340  15.236  18.036  20.465  18.327  18.546  14.725  16.592  17.473  17.266
   15.042  17.788  21.162  18.800  18.072  21.728  17.066  17.482  16.227  14.003
   13.587  14.256  18.492  21.239  21.226  17.680  20.019  18.202  12.755  14.264
   13.992  13.667  15.367  17.026  21.488  16.207  16.793  14.532  14.700  15.640
   16.339  11.892  13.974  19.694  19.196  18.615  19.786  19.977  16.806  19.367
   16.591  12.452  13.747  13.347  15.338  16.402  15.028  17.586  19.885  17.687
   12.839  11.457  13.001  13.594  15.748  12.924  16.028  16.872  18.171  16.586
   12.327  17.002  11.050  15.164  10.289  11.806  10.007  12.114  12.803  13.967
    6.817   8.634   8.741  10.921   8.989   8.629   6.513   5.534  10.533  10.027

    0.150  20.018
   17.082  17.679  20.472  19.738  18.808  17.100  18.417  20.305  18.726  18.717
   16.669  15.461  17.993  21.276  17.757  18.356  14.213  16.535  17.143  17.359
   15.098  18.314  21.306  17.831  17.433  20.913  16.111  18.428  15.555  13.540
   13.561  15.438  18.613  20.480  21.927  18.708  19.963  17.932  13.380  13.846
   14.284  13.252  16.000  16.744  21.361  16.321  16.455  14.329  15.513  15.271
   16.708  12.929  13.906  19.166  19.087  17.338  19.391  19.589  16.388  18.657
   15.901  12.375  12.999  14.829  14.947  14.998  13.664  16.808  19.006  17.049
   13.016  11.061  12.438  13.488  14.318  13.531  16.842  17.724  17.767  16.811
   13.182  15.880  10.591  14.140  11.220  12.210   9.675  12.721  12.491  13.573
    7.144   9.224   8.567  10.498   8.188   9.420   6.862   5.771  10.929  10.041

    0.200  20.047
   17.512  17.724  21.329  20.060  18.760  16.936  17.323  19.420  18.869  19.174
   16.988  15.214  17.489  21.157  18.810  17.988  13.906  17.388  16.819  17.216
   13.924  17.609  20.731  18.125  17.681  20.172  16.422  17.943  15.883  14.811
   13.491  15.436  18.936  20.872  22.591  18.421  20.260  18.564  13.771  13.984
   13.814  13.066  16.763  17.243  20.063  15.455  17.113  13.388  14.698  15.610
   16.670  11.899  14.645  19.012  18.432  17.319  18.764  19.846  16.701  18.692
   15.959  13.010  12.372  14.243  15.464  14.332  13.590  16.459  19.372  17.321
   12.642  10.049  12.608  13.337  14.669  13.536  17.058  18.410  17.615  16.923
   14.053  16.123   9.982  13.639  10.610  11.976   9.732  12.817  11.388  13.479
    6.257   9.033   8.836   9.918   7.804   8.884   6.304   5.737  10.431   8.913

    0.250  19.969
   17.953  17.393  20.514  21.049  20.519  17.282  17.222  19.113  18.958  19.845
   16.923  16.126  19.132  20.585  18.058  18.400  14.988  17.724  16.950  16.180
   14.750  18.025  19.737  17.915  16.974  20.194  17.507  17.333  15.540  15.711
   14.460  15.500  18.883  20.932  21.922  18.259  21.623  17.208  13.477  13.834
   14.744  14.180  16.846  17.559  20.493  14.768  17.414  14.531  14.277  15.758
   17.179  11.310  14.140  18.804  18.983  17.775  18.493  19.955  16.312  18.153
   15.978  14.057  12.222  14.358  14.755  15.412  14.456  16.136  20.198  17.297
   12.273   9.823  12.364  11.983  15.734  13.956  16.377  18.206  17.655  17.652
   13.311  16.357  10.108  13.753  10.859  12.516  10.298  12.058  11.067  13.622
    6.158   9.476   9.493   9.642   7.406   9.374   6.898   6.151  10.257  10.108

    0.300  20.265
   18.187  16.956  20.257  20.425  21.095  16.916  18.320  18.846  19.447  19.272
   16.808  15.218  19.082  21.366  17.456  18.044  14.742  17.000  16.617  17.145
   15.350  18.966  19.969  17.517  16.813  19.662  17.600  17.651  15.914  16.348
   14.184  16.231  18.615  20.773  21.706  17.857  21.934  17.841  13.323  13.826
   14.640  14.642  15.926  17.102  20.687  14.447  16.355  15.112  14.585  16.356
   17.095  12.507  14.845  18.750  18.213  16.723  17.680  19.625  16.088  18.178
   16.413  13.103  12.361  14.519  13.988  16.513  14.849  16.257  20.532  16.658
   13.169  10.774  11.987  13.096  15.585  14.619  17.007  17.789  17.747  16.515
   13.686  15.220  10.669  13.618  10.958  12.826  10.164  11.856  11.455  13.472
    6.247   9.446   9.936   9.461   7.440   9.352   6.893   5.422   9.983  10.057

    0.350  20.511
   18.557  16.291  20.074  21.069  20.085  17.213  18.697  18.896  19.442  21.139
   17.880  15.114  18.351  22.591  17.130  16.693  14.994  17.736  17.356  17.385
   15.808  18.917  19.942  18.170  17.036  19.447  17.409  17.458  16.211  15.456
   14.695  16.249  18.073  21.347  21.074  18.243  22.872  17.946  12.888  14.768
   14.814  14.404  16.693  17.969  20.949  14.802  16.328  14.802  14.849  16.524
   17.204  11.925  15.248  17.561  18.976  17.100  18.069  18.548  16.254  18.553
   17.133  13.600  12.404  14.764  13.912  15.762  14.763  16.643  20.242  17.962
   13.555  11.016  12.627  13.321  15.659  13.210  16.881  17.502  17.501  15.666
   13.247  15.160  10.732  14.625  10.874  11.743  10.529  11.681  12.390  12.883
    5.776   9.627   9.998   8.955   7.645   9.976   7.322   5.350  10.204  10.603

    0.400  19.825
   19.056  16.975  20.276  20.678  21.532  17.065  18.712  19.697  19.640  20.831
   19.251  14.333  19.707  22.464  16.676  17.240  15.315  18.522  17.115  17.290
   16.458  18.693  19.619  18.446  17.369  18.952  17.043  17.925  15.145  15.797
   14.019  16.761  18.988  22.447  20.845  18.423  23.817  18.923  12.582  14.439
   14.132  15.722  17.229  18.230  20.945  14.958  17.553  14.926  15.470  17.234
   16.773  13.078  15.753  17.668  18.297  16.407  17.581  18.227  16.151  18.010
   18.017  14.460  11.780  14.537  13.778  16.452  14.788  16.948  20.704  17.653
   13.440  11.216  13.572  14.238  14.506  12.575  17.720  17.262  16.827  15.658
   12.353  14.998  10.965  14.903  11.563  12.521  10.517  11.069  13.786  12.724
    6.096   8.573   9.685   9.268   8.010   9.353   8.316   4.350   9.702  10.311

    0.450  19.285
   19.218  17.007  19.774  20.361  20.965  18.153  18.909  19.431  19.337  20.429
   19.362  14.523  18.995  21.909  16.305  17.243  15.131  18.862  17.382  17.783
   16.922  18.558  20.082  18.323  17.279  18.849  16.780  17.483  14.791  15.494
   14.754  16.967  19.675  22.617  20.685  17.372  23.081  19.934  11.703  14.446
   14.165  16.117  17.519  18.090  20.928  16.224  17.329  15.265  15.196  16.729
   17.160  13.777  15.461  17.446  17.329  15.789  18.005  18.400  16.025  17.497
   17.955  13.685  11.867  13.981  13.675  16.746  14.214  18.296  20.716  16.874
   12.480  11.058  12.999  14.768  15.186  13.233  17.728  16.636  17.121  14.760
   11.630  15.048  10.215  14.729  11.191  12.728  10.569  10.859  13.277  12.179
    6.263   8.076   8.744   9.253   7.949   7.800   6.963   4.664   9.655  10.961

    0.500  18.934
   19.184  16.472  19.783  19.981  20.842  18.144  18.188  20.270  20.047  20.467
   18.590  14.499  19.378  21.569  16.871  17.570  15.148  19.355  17.127  18.146
   16.917  19.161  20.214  17.769  17.243  18.153  17.200  17.867  15.018  16.041
   14.305  16.496  19.222  21.859  20.591  17.515  21.831  19.961  11.871  15.297
   14.086  16.867  17.906  19.349  20.686  16.568  17.189  16.307  15.610  16.788
   17.020  14.155  14.615  18.290  17.535  16.210  18.414  18.212  16.447  17.206
   17.649  13.709  12.879  13.982  13.497  16.447  13.924  19.104  19.978  17.522
   12.235  11.327  12.796  13.983  14.164  12.368  17.340  17.003  17.550  15.749
   11.378  14.337   9.421  13.986  12.229  11.617  10.919  10.255  13.192  12.172
    5.475   8.508   8.856   8.805   8.308   7.941   7.098   4.562   9.419  11.017

    0.550  18.685
   19.258  16.141  20.890  19.196  20.906  17.298  17.888  19.824  20.601  20.881
   17.728  15.007  20.492  21.930  17.027  17.759  15.320  19.462  16.002  18.547
   17.340  18.632  20.879  18.108  17.927  18.347  17.608  19.100  15.715  15.381
   14.084  17.610  18.254  21.653  20.351  18.153  21.580  19.804  12.512  15.316
   15.189  16.349  17.287  20.431  20.387  15.654  16.309  17.468  15.054  15.777
   16.085  15.129  15.144  19.829  17.568  16.466  18.798  18.324  16.667  17.639
   17.613  13.661  13.193  14.554  13.854  15.575  14.425  17.999  20.394  18.020
   12.701  10.562  12.781  14.886  13.634  12.237  16.498  17.710  16.535  16.350
   12.087  14.708   9.896  14.241  12.140  11.937  10.081  10.259  12.022  12.737
    6.327   8.406   9.592   8.873   8.343   7.145   7.026   4.817   9.714  11.259

    0.600  18.698
   19.762  16.712  20.302  19.738  19.672  17.416  18.980  20.229  20.740  20.307
   17.235  14.309  20.735  21.828  17.338  17.159  15.630  19.012  16.729  18.518
   17.483  18.115  21.213  18.172  18.229  18.113  18.370  18.489  15.956  16.123
   13.449  17.298  18.476  21.201  20.607  18.192  22.066  21.083  13.120  14.845
   15.056  15.233  17.431  20.046  19.583  16.098  15.491  17.780  15.903  14.533
   15.759  15.550  15.420  18.926  16.991  15.205  18.481  19.231  17.278  17.860
   17.811  13.680  12.553  13.610  14.729  15.318  14.014  18.950  20.157  17.856
   11.803  10.585  13.552  15.629  13.965  12.598  16.062  16.230  15.823  15.862
   11.511  14.085   9.056  14.480  11.915  12.038  10.666  10.247  12.250  14.107
    5.737   7.901   9.009   8.960   7.736   7.423   7.666   5.584  10.649  10.169

    0.650  18.380
   18.952  17.127  21.126  21.432  18.914  17.664  19.693  20.523  20.317  19.697
   16.656  13.434  21.234  21.600  16.517  17.126  16.467  19.007  17.310  18.609
   17.281  17.619  20.888  17.896  18.207  18.196  18.307  17.519  15.480  16.599
   13.739  17.950  18.237  20.634  19.987  18.533  22.366  20.633  13.857  14.334
   15.122  14.784  17.915  19.621  19.480  16.364  16.621  17.659  14.902  14.082
   15.971  14.908  15.414  19.313  16.427  16.509  18.200  18.594  17.464  18.614
   17.373  14.353  12.122  13.481  15.447  14.747  14.714  18.613  19.233  17.714
   11.593  10.652  13.054  15.653  13.831  12.427  16.372  16.578  16.583  15.655
   11.189  13.507   8.159  13.557  11.649  11.604  11.668  11.741  12.777  12.324
    6.006   7.405   8.926   8.928   7.694   7.389   8.142   6.177  11.067  10.339

    0.700  17.629
   19.250  16.881  20.509  21.761  18.795  17.951  20.490  21.780  20.284  19.157
   17.120  13.953  21.495  21.720  17.241  16.910  18.117  19.039  16.941  18.849
   17.506  17.108  21.351  18.077  18.792  17.969  17.715  17.100  15.581  16.302
   12.580  18.284  18.880  19.661  20.218  19.206  21.414  20.391  13.772  14.854
   15.281  14.663  18.034  19.751  20.529  16.305  16.106  17.037  14.086  14.764
   15.474  14.539  13.601  19.888  16.729  15.979  17.391  18.433  17.233  18.695
   16.373  14.142  12.133  13.317  14.681  14.827  15.625  18.561  19.093  18.244
   11.402  10.159  12.923  14.518  13.409  13.269  15.458  17.385  17.116  15.615
   11.815  13.108   8.077  13.575  11.242  11.848  10.812  11.576  13.245  11.655
    7.588   8.256   8.151   9.230   7.231   7.185   8.448   6.414  11.611   9.815

    0.750  17.895
   19.288  16.588  19.220  21.098  18.995  18.866  20.426  22.083  20.826  19.622
   16.786  13.743  20.966  21.439  16.682  16.834  17.223  19.255  16.753  19.169
   16.616  16.249  21.537  18.163  18.724  18.924  17.811  17.438  14.349  16.637
   12.471  17.493  17.799  20.460  20.393  18.198  21.968  20.826  14.301  14.414
   15.217  14.669  17.455  19.240  19.998  16.489  16.518  17.415  14.640  14.585
   15.277  14.888  13.508  19.193  17.076  16.393  18.056  18.681  16.665  18.568
   16.405  13.611  12.219  13.643  14.330  14.569  16.330  19.835  18.734  18.127
   11.633  10.339  12.728  13.547  13.404  13.446  16.324  18.197  16.888  15.711
   10.991  12.934   7.979  13.727  11.017  11.756  10.639  11.910  12.369  11.049
    7.933   8.176   8.023   8.527   7.090   6.394   7.641   6.786  10.455   9.870

    0.800  18.726
   18.012  16.991  19.181  21.205  19.230  18.787  20.658  20.528  20.042  19.494
   16.751  14.315  20.775  22.065  16.244  17.398  17.018  19.437  16.721  19.010
   17.000  16.731  22.308  16.978  19.117  19.058  19.015  17.170  13.358  15.871
   13.713  17.238  17.363  21.000  21.053  17.678  22.042  21.968  14.005  14.149
   15.046  15.539  16.669  19.084  19.801  16.738  16.711  18.425  14.097  14.746
   14.505  14.719  14.372  19.882  16.150  16.684  17.412  19.217  17.108  18.154
   16.840  13.597  13.064  12.696  15.483  14.562  16.876  19.444  19.255  17.939
   10.798  10.150  11.650  13.184  13.907  13.540  16.440  18.134  16.972  16.024
    9.489  13.215   8.469  13.658  11.297  11.930  10.786  12.255  11.837  10.892
    7.809   8.355   8.527   8.999   6.301   6.397   6.785   7.740   9.841  10.448

    0.850  17.744
   17.689  17.063  19.951  21.662  19.998  17.790  20.772  21.475  19.148  20.229
   17.735  13.924  21.177  21.439  16.478  18.374  17.494  20.129  16.488  18.952
   17.183  17.014  21.860  17.513  19.036  18.792  19.982  17.802  14.001  16.226
   13.959  16.890  17.797  19.651  21.391  18.583  22.188  22.648  13.831  14.557
   14.565  16.077  16.261  19.930  19.807  16.722  16.311  18.957  14.290  15.565
   14.342  14.529  14.570  19.712  16.653  15.644  17.881  19.538  16.663  18.392
   15.297  13.132  11.906  11.754  15.411  15.299  16.495  18.854  19.255  18.075
   11.306  10.622  11.379  13.112  13.257  13.217  16.393  18.182  17.375  16.105
    8.170  13.004   8.357  13.371  12.483  11.723  11.121  12.998  11.866  11.081
    7.746   8.676   9.079   9.133   6.444   4.629   7.873   7.847  10.560  10.884

    0.900  17.412
   17.980  17.194  18.919  21.881  19.784  17.891  20.424  21.686  19.477  20.920
   17.759  14.370  20.600  21.738  16.715  19.022  17.914  19.818  16.124  18.078
   17.747  16.662  21.110  18.307  19.274  18.571  19.954  16.910  13.413  16.482
   14.377  17.914  18.337  20.416  22.671  18.709  21.782  22.031  14.625  15.069
   15.072  14.771  17.151  19.553  18.970  17.190  15.993  18.760  15.384  14.918
   13.809  14.212  13.862  20.718  17.365  15.849  18.417  19.200  16.950  18.162
   15.227  12.696  11.090  12.091  15.572  15.442  16.401  18.615  19.821  18.865
   11.122  11.320  12.764  12.851  13.604  14.180  17.093  17.447  18.162  17.125
    9.186  13.035   9.895  13.621  12.460  10.951  11.994  13.005  11.599  11.854
    7.244   9.199   9.918   9.374   6.425   4.950   7.935   8.402   9.936  11.252

    0.950  17.753
   19.290  17.993  18.390  22.668  18.804  18.568  20.253  21.192  19.520  20.012
   16.166  15.387  20.506  21.527  16.737  18.964  18.700  19.545  15.468  18.125
   17.823  17.063  22.547  19.155  18.290  18.999  19.724  16.227  14.061  16.322
   13.809  18.507  17.278  20.131  22.451  17.881  20.337  21.653  14.386  14.420
   14.904  14.451  16.816  19.552  18.500  17.309  16.667  18.891  16.365  14.565
   13.976  13.934  13.646  20.642  17.586  16.034  19.386  19.238  16.168  18.559
   15.021  13.933  11.827  11.802  14.915  16.468  16.313  18.330  20.398  18.190
   11.051  11.510  13.483  12.490  12.561  14.074  16.589  18.572  17.933  16.628
   10.441  12.928  10.719  14.071  12.829  10.259  11.310  13.128  11.237  12.478
    7.104   8.851  10.347   8.714   7.070   5.234   8.570   8.620  10.261  11.163

    1.000  17.639
   18.828  18.794  18.306  22.414  19.199  18.638  20.492  21.299  20.280  20.456
   15.661  15.458  19.509  21.011  16.644  19.566  19.540  19.132  15.332  18.414
   17.626  17.570  22.320  19.942  18.590  18.831  20.597  16.443  14.471  16.931
   14.469  18.486  18.349  19.297  22.642  18.299  20.687  22.002  13.541  14.147
   14.923  13.562  16.330  18.431  17.989  16.789  16.097  19.044  15.864  15.058
   13.627  14.562  14.163  19.260  17.062  15.990  19.839  19.447  17.237  18.172
   14.934  12.911  11.050  12.153  15.010  17.192  16.630  18.208  21.080  18.211
   10.964  11.957  13.678  12.447  13.137  13.218  16.845  18.592  18.993  16.682
   10.934  13.843  10.256  13.001  13.180  10.143  10.207  13.710  11.701  13.057
    6.502   9.976  10.324   8.996   6.781   4.745   8.886   9.256  10.439  10.955

    1.050  17.705
   18.960  18.383  18.134  23.831  19.938  18.603  21.600  21.357  19.780  19.888
   15.781  15.087  20.138  20.940  17.130  20.255  20.121  20.165  16.739  18.521
   17.773  17.877  22.143  19.653  18.213  18.974  20.431  15.663  14.411  16.647
   14.285  17.739  18.705  19.241  21.222  19.130  20.559  22.199  13.884  14.768
   14.617  14.097  15.799  18.852  17.800  17.525  17.429  19.565  15.348  14.990
   13.683  14.607  14.280  18.974  15.505  16.056  19.039  20.473  17.019  17.896
   15.162  13.436  10.975  11.326  14.902  17.121  17.147  18.393  20.725  18.759
   11.291  11.591  12.582  13.742  12.602  13.291  17.440  18.446  18.919  17.404
   11.006  13.557  10.397  13.220  14.042  10.741  10.703  13.708  12.463  13.053
    7.021   8.924   9.356   8.823   7.595   4.530   8.719   8.389  10.027  10.706

    1.100  18.216
   19.716  17.714  18.197  24.127  19.933  19.365  21.745  22.348  20.058  20.196
   16.224  14.902  20.794  19.961  17.845  20.249  20.992  20.621  18.140  18.273
   17.546  17.908  20.997  19.197  17.355  18.409  20.023  15.821  14.739  16.831
   13.787  17.865  18.399  18.641  21.167  19.769  20.393  21.088  14.685  14.455
   14.809  14.591  16.998  18.962  16.657  17.378  17.077  19.937  14.106  16.061
   13.560  15.137  15.209  18.893  16.256  16.025  19.819  20.750  17.239  17.513
   15.904  12.509   9.675  11.383  14.939  16.768  16.986  18.641  20.907  19.538
   10.640  11.950  11.041  13.543  11.871  13.164  17.182  18.335  18.061  18.255
   10.324  14.246  10.328  13.494  13.025  10.783  10.787  14.179  13.506  12.903
    6.457   9.535   9.929   9.174   7.684   5.167   8.190   9.384   9.864  11.169

    1.150  18.419
   19.367  16.638  17.457  24.947  20.289  19.927  21.528  23.619  19.740  20.511
   15.704  14.438  19.943  21.077  18.381  19.583  20.354  20.282  18.017  18.983
   17.161  18.281  20.998  19.601  17.680  18.521  19.755  16.455  15.052  16.399
   13.971  17.835  18.139  18.452  21.710  19.405  19.784  21.101  15.289  14.108
   15.133  15.186  17.444  19.358  16.599  16.896  17.229  19.835  14.305  16.168
   13.285  15.698  14.943  18.366  15.778  15.491  18.865  21.099  17.415  17.751
   15.932  12.456  10.604  12.790  14.289  16.542  16.814  19.066  20.333  19.657
   10.771  11.952  11.182  13.615  12.464  13.134  18.098  18.480  18.691  18.103
    9.861  14.384   9.929  13.262  11.990  10.483  10.242  13.613  13.531  12.412
    5.807   9.428   9.399   8.604   7.506   5.812   8.450   8.836   9.868  11.456

    1.200  18.256
   18.715  17.643  18.009  25.292  20.165  18.583  21.563  22.734  19.288  20.015
   16.068  13.500  19.579  20.923  18.917  20.000  20.557  20.021  18.685  17.645
   16.971  18.900  21.699  18.795  17.422  18.559  20.503  17.046  14.799  15.092
   13.789  17.520  18.993  17.262  21.546  19.069  19.884  21.775  15.215  14.745
   15.335  15.268  17.569  19.419  16.755  17.509  18.064  19.403  14.515  16.235
   12.219  16.015  15.597  17.861  16.150  15.003  18.321  21.289  17.347  17.476
   15.939  12.947  11.069  11.677  13.693  17.449  17.296  18.980  19.929  19.704
   10.837  12.121  11.791  12.974  13.323  13.100  17.639  17.750  18.860  17.750
    8.968  13.751   9.775  13.696  12.326  11.005   9.719  13.680  12.897  12.473
    5.837   9.651   9.228   9.182   8.639   6.462   7.276   9.047   8.908  12.197

    1.250  17.635
   18.419  17.659  19.770  26.374  20.147  18.839  20.874  22.901  19.437  20.219
   15.518  13.315  19.208  20.493  19.359  20.394  21.047  20.959  17.552  17.604
   17.060  19.542  20.821  18.171  17.404  17.642  20.563  16.794  14.800  14.812
   14.697  17.182  19.215  17.313  20.877  18.713  20.541  21.756  14.768  13.698
   15.399  15.560  17.524  17.899  17.737  17.682  17.972  20.179  13.855  15.377
   11.810  14.924  16.457  17.895  16.274  15.965  17.387  20.349  17.986  16.609
   15.857  13.108  11.306  12.360  13.689  17.189  17.191  19.641  19.867  19.681
   11.832  12.571  11.627  13.610  13.800  13.034  17.473  17.808  18.724  17.599
    9.146  13.681   9.923  13.106  11.909  10.838  10.238  12.754  12.209  12.493
    6.236   8.899   9.248   9.772   8.913   7.680   7.310   8.293   8.127  12.153

    1.300  18.844
   18.536  17.182  20.351  26.222  20.079  19.823  19.928  22.775  20.189  19.936
   15.937  14.088  20.047  19.954  19.869  21.313  21.178  20.590  18.397  17.451
   17.071  20.197  21.432  17.128  17.775  17.699  20.509  16.594  15.087  15.087
   13.949  16.879  18.947  17.532  19.708  18.561  20.705  21.448  14.942  12.860
   15.325  14.988  17.536  18.088  17.499  17.560  18.564  20.752  14.948  14.783
   12.643  14.208  15.923  17.872  15.865  15.989  17.581  20.127  17.820  17.215
   15.141  13.959  11.606  12.296  13.904  17.403  17.349  19.723  19.224  18.557
   11.831  13.965  11.486  12.978  13.529  13.764  16.878  17.400  17.619  18.455
    8.744  13.606   9.888  13.496  11.898  10.798   9.506  12.548  12.550  13.144
    5.321   8.762   8.369  10.104   8.650   7.271   7.171   9.607   9.111  12.137

    1.350  18.194
   19.540  16.842  20.953  26.459  20.278  20.150  20.048  22.739  20.213  20.086
   17.381  13.658  20.568  19.124  19.372  21.826  21.366  21.123  19.366  17.415
   17.131  20.474  20.434  17.209  18.427  17.939  20.402  16.778  15.412  14.604
   14.353  16.643  18.678  17.139  19.433  18.321  19.378  22.462  15.838  13.019
   15.231  14.718  17.690  17.607  17.867  17.625  18.731  19.834  15.459  15.586
   12.433  13.858  15.378  16.809  15.447  15.157  18.262  20.604  17.257  17.333
   15.405  13.450  12.003  12.057  14.570  17.033  17.840  18.857  19.553  18.581
   11.758  13.957  11.678  13.097  12.843  14.226  16.394  18.431  17.409  18.416
    8.629  12.550  10.277  13.362  13.085  10.514   9.378  12.510  13.127  13.614
    5.013   9.155   7.618  10.425   8.913   7.361   8.145  10.923   9.327  10.758

    1.400  17.648
   19.593  15.713  20.875  26.603  19.256  19.503  20.446  22.582  19.672  19.233
   17.481  14.362  21.416  19.241  19.281  22.234  22.260  20.830  19.465  17.948
   17.319  19.862  21.085  17.332  18.316  19.262  20.365  17.016  15.429  15.639
   12.802  17.157  18.874  16.881  19.478  19.140  19.489  22.979  15.678  13.695
   15.024  14.819  17.024  17.115  17.459  17.368  18.655  20.022  14.890  15.529
   12.487  14.096  14.058  17.778  16.578  14.950  18.621  20.567  17.171  17.160
   15.713  12.838  11.916  11.636  14.434  16.518  18.209  19.406  19.288  18.885
   11.142  14.138  12.020  13.565  13.043  14.125  16.221  18.302  17.525  18.794
    8.791  12.025  10.801  13.608  12.174  10.755   9.689  12.215  13.342  13.643
    5.902   8.764   7.789  10.384   8.707   6.621   9.141  10.647   9.984  11.145

    1.450  16.915
   19.282  14.943  20.482  25.261  18.615  20.171  19.870  22.604  18.931  20.038
   17.268  15.178  20.801  18.768  19.168  22.349  22.198  21.809  19.904  17.953
   17.445  19.698  20.598  18.506  19.069  19.390  21.204  17.377  14.934  14.914
   12.087  18.524  18.356  17.216  18.244  18.793  19.456  22.882  14.947  13.381
   14.688  14.725  17.275  16.862  18.488  16.605  19.419  20.378  15.320  15.017
   12.985  13.279  13.797  17.871  15.719  14.615  18.352  19.903  18.056  17.562
   15.652  13.694  12.866  12.397  14.533  16.453  17.589  19.637  18.214  18.447
   10.453  14.498  12.179  13.822  13.721  13.292  16.225  19.350  18.504  18.732
    8.500  12.418  12.674  13.479  11.593  11.936  10.349  13.071  13.663  13.595
    6.049  10.035   8.970  10.865   8.725   7.589   9.596   9.912   9.912  10.661

    1.500  15.769
   19.603  15.028  20.412  25.956  19.015  20.877  19.201  22.944  18.369  19.936
   16.658  15.707  20.770  18.975  19.760  22.926  22.425  22.831  20.834  18.367
   17.563  20.604  20.144  18.110  18.193  19.226  22.758  17.182  15.124  15.811
   12.745  18.688  18.225  17.147  18.099  18.227  20.075  22.875  15.661  13.322
   14.784  15.410  17.301  16.921  19.129  17.602  19.947  20.740  16.278  14.290
   14.542  12.088  12.838  18.007  15.572  15.299  18.320  19.190  17.683  17.691
   15.059  14.978  12.206  11.585  15.424  17.057  18.122  20.495  18.765  18.442
   10.440  14.523  12.131  13.362  14.149  12.761  15.984  19.175  18.136  19.205
    8.544  12.785  12.183  14.498  11.220  11.622  10.440  11.667  14.069  13.348
    5.710  10.240   9.119  10.871   9.204   9.265  10.140   9.689  10.011  10.806

    1.550  15.733
   19.061  15.671  20.300  25.855  19.681  20.696  19.638  23.108  17.856  19.527
   16.008  16.094  21.997  19.271  19.468  22.823  22.811  22.451  19.281  18.477
   18.243  21.230  19.576  18.045  17.922  19.261  23.358  17.692  16.212  16.195
   14.169  18.459  18.518  18.236  18.876  17.401  20.918  23.372  14.688  14.094
   15.027  15.268  16.826  17.695  20.177  17.909  20.928  19.811  15.477  14.436
   13.992  12.319  13.325  18.471  15.117  15.021  18.385  18.400  16.608  17.194
   15.151  14.709  11.654  11.208  15.132  17.295  17.322  20.867  18.585  17.858
   10.381  15.076  11.795  13.481  14.283  13.740  16.710  18.622  18.449  18.956
    8.317  12.653  12.708  14.897  11.729  10.504  10.774  11.750  13.688  13.500
    6.116  11.003  10.042  10.051   9.593   8.509   9.778  10.607   9.710  10.346

    1.600  15.789
   19.045  16.530  19.974  25.234  19.544  21.271  20.436  22.182  18.008  19.879
   16.407  16.964  21.204  19.631  18.416  22.623  24.088  23.483  18.120  17.968
   18.590  20.022  19.192  18.432  16.992  18.642  23.103  17.472  15.964  15.363
   14.641  18.009  18.362  17.618  18.415  17.706  21.313  23.995  14.709  13.728
   15.356  15.518  18.175  17.899  20.413  17.768  20.469  19.785  15.298  16.030
   14.845  12.220  14.034  19.325  15.200  14.809  17.584  17.646  16.383  16.518
   15.036  13.825  12.355  11.672  14.475  16.642  18.272  19.989  18.684  18.103
   11.023  15.003  12.803  13.885  14.492  13.683  17.809  19.114  19.234  19.081
    9.149  13.643  12.802  14.604  12.680  10.467  10.793  11.908  13.384  12.932
    6.861  10.971   9.769  10.017   9.547   8.650   9.329  10.132   9.497   9.559

    1.650  16.037
   18.240  16.793  19.820  24.919  18.564  21.409  20.953  21.937  18.899  19.673
   16.604  16.975  20.205  20.718  18.038  23.180  23.882  23.524  17.948  18.508
   19.177  20.058  19.555  18.357  17.083  18.245  23.594  16.567  16.237  13.795
   14.923  16.437  18.160  17.591  18.418  18.418  22.305  23.050  13.872  11.884
   14.794  16.155  17.780  17.182  19.373  18.869  21.694  19.340  16.027  17.240
   14.850  10.604  14.124  18.801  15.364  15.151  17.534  18.030  16.664  17.540
   14.207  13.902  12.097  11.111  15.007  17.977  18.657  19.924  19.078  17.482
   10.629  14.878  13.786  13.947  14.308  12.761  16.633  18.528  18.108  18.586
    8.740  13.544  12.105  14.028  12.458  10.856  11.338  10.896  12.309  12.775
    6.763  10.745   8.041   8.728   9.565   9.011   9.569  10.577   9.659   9.923

    1.700  16.153
   18.531  17.069  20.003  24.330  18.613  21.073  20.749  22.309  19.212  19.594
   17.421  16.640  21.011  19.589  17.949  22.923  23.223  23.273  18.840  18.553
   19.068  19.374  20.428  18.117  17.753  18.204  24.479  17.241  17.200  13.753
   14.624  16.863  18.293  17.243  18.583  18.268  23.111  23.812  14.940  11.374
   14.999  15.996  18.365  16.831  19.548  18.598  20.600  19.495  16.627  16.736
   14.964  11.150  15.047  18.928  15.379  15.080  17.702  17.602  17.352  17.967
   14.579  13.898  12.155  11.003  15.078  19.684  18.399  19.701  18.694  17.254
   11.219  14.311  14.105  13.701  13.575  13.200  16.407  19.374  17.793  17.484
    9.252  13.798  12.083  13.292  12.277  12.149  11.480  11.982  12.019  12.959
    6.581  11.024   7.555   9.651   9.691   8.182   9.665  10.871   9.659   9.784

    1.750  15.550
   19.075  16.676  19.441  24.440  17.884  21.510  21.727  21.229  19.124  19.816