
This full-field turbulence file was generated by TurbSim (v1.40, 12-Sep-2008) on 27-May-2021 at 12:57:00.

 | u-comp |  Y  x  Z  | Grid Resolution (Y x Z) | Time-step | Hub Elev | Mean U |
            10    10     15.556     15.556          0.050      80.00     19.00

 Z Coordinates (m):
  -70.000 -54.444 -38.889 -23.333  -7.778   7.778  23.333  38.889  54.444  70.000

 Y Coordinates (m):
  -70.000 -54.444 -38.889 -23.333  -7.778   7.778  23.333  38.889  54.444  70.000

    0.000  16.477
   21.274  15.745  16.833  17.939  15.338  16.145  18.750  17.485  18.080  20.868
   17.028  17.157  17.244  14.512  20.132  16.370  20.540  17.417  15.653  18.322
   18.991  16.784  17.008  18.161  17.420  17.594  17.961  17.438  18.453  18.444
   21.441  16.983  15.346  14.045  14.074  16.629  17.343  17.519  19.121  20.594
   17.057  12.545  12.879  15.171  13.886  16.966  16.366  19.816  19.910  17.695
   15.546  13.896  10.000  14.184   9.850  16.192  17.213  16.357  16.722  19.863
   12.712  12.495  14.369  16.156  12.587  15.869  15.529  16.093  18.749  16.714
   11.200  10.891  14.357  13.521  15.494  14.033  14.883  14.157  16.134  16.431
   10.047  13.035  13.219  12.847  10.104  11.248  11.971  15.458  15.020  13.439
    8.307   6.817  11.112  10.479  11.199   9.628   7.856  11.622  12.526  10.861

    0.050  16.860
   20.244  15.410  15.802  18.585  16.436  16.150  19.026  17.331  17.692  19.878
   16.760  16.298  17.063  14.994  19.984  16.274  21.465  17.525  15.832  18.330
   17.751  17.509  17.761  17.500  16.490  17.619  18.310  17.277  19.613  18.393
   20.880  17.411  15.992  14.278  14.615  16.598  18.410  18.310  18.744  20.020
   16.481  13.236  12.899  15.236  14.313  17.239  16.308  20.172  19.954  17.696
   16.305  13.855  10.164  13.860  10.068  16.150  18.924  17.454  16.541  20.869
   12.967  12.782  14.337  14.687  12.396  16.524  16.173  16.086  19.378  16.832
   10.751  11.194  13.880  14.031  16.320  14.754  15.562  14.353  16.582  17.020
   10.372  12.952  12.613  12.554   9.611  10.894  11.369  15.391  15.314  12.877
    8.648   7.425  10.721  10.439  10.900   8.656   7.627  11.215  12.180  11.278

    0.100  15.625
   20.855  15.597  15.744  18.962  15.875  16.521  18.039  16.909  17.968  20.327
   17.257  16.353  18.102  14.875  19.707  16.106  20.440  17.798  15.625  18.624
   17.417  18.015  17.125  17.494  16.350  16.681  17.925  17.231  18.743  18.610
   21.021  18.645  15.957  13.857  15.251  16.386  18.925  18.264  19.091  20.310
   16.390  13.819  13.157  15.436  13.745  17.521  16.513  19.900  21.069  17.503
   16.624  14.720  10.216  13.097   9.982  15.668  17.862  17.859  15.627  20.101
   12.942  12.213  13.167  16.148  11.760  15.731  15.057  15.895  18.525  16.167
   10.369  13.035  13.607  12.991  16.118  15.430  15.623  14.867  16.700  16.851
    9.751  13.395  13.198  12.623  10.401  10.326  11.176  15.705  14.906  13.259
    8.406   7.588  10.015   9.394  10.170   7.979   8.148  11.162  12.774  11.436

    0.150  15.680
   21.168  15.514  15.714  19.619  15.566  15.506  18.141  17.345  18.292  21.043
   17.432  16.194  18.043  13.944  19.677  17.092  19.904  17.446  16.222  19.120
   17.518  17.663  16.409  18.451  17.024  17.020  18.091  16.496  19.009  18.990
   21.319  17.797  16.030  15.058  14.116  15.827  19.376  17.980  19.623  20.561
   16.409  14.820  14.116  16.609  13.568  17.898  17.503  20.298  21.196  18.273
   16.094  14.674  11.080  12.657   9.101  16.107  17.729  17.892  16.347  19.453
   12.789  12.515  13.099  16.339  12.344  14.775  14.814  15.308  18.305  16.451
   10.634  12.048  13.187  13.336  15.183  16.031  16.159  15.178  16.054  16.928
   10.864  11.946  12.568  11.438  11.090  10.531  10.906  15.972  14.612  12.665
    8.637   8.235   9.811   9.084   9.343   8.670   8.469  11.513  12.728  11.035

    0.200  17.172
   20.924  15.779  16.208  20.085  15.478  15.395  16.865  16.822  17.633  20.760
   17.957  15.732  16.591  13.698  19.885  17.753  18.925  17.149  16.142  19.161
   17.346  17.849  17.034  18.525  16.806  17.799  16.842  17.396  19.160  18.290
   20.916  16.914  15.987  15.495  14.118  16.182  18.650  17.750  20.257  21.169
   16.446  15.587  13.422  16.222  14.688  18.797  16.932  20.422  22.238  18.108
   15.855  15.138  11.229  12.720   9.247  17.097  17.718  18.134  16.232  19.663
   13.520  12.951  13.582  15.932  12.025  16.000  15.892  15.835  18.587  16.642
   10.179  11.997  13.335  12.318  16.213  15.905  15.125  14.245  15.897  16.875
   10.985  12.323  12.391  11.603  10.695  10.221  11.366  15.217  14.271  12.770
    7.842   7.976  10.139   8.505   9.149   8.148   8.023  11.733  12.074  10.722

    0.250  18.784
   21.109  15.460  15.945  20.726  17.283  14.676  16.776  16.283  17.905  21.140
   17.919  15.717  16.396  12.593  20.008  18.338  18.806  17.256  16.295  18.738
   16.139  16.927  16.407  18.586  16.745  17.954  17.098  17.019  19.030  19.993
   20.536  15.859  16.548  16.074  15.069  17.030  18.289  17.261  21.615  20.896
   15.714  14.370  14.296  15.993  14.570  19.102  17.287  19.032  22.297  17.986
   15.445  16.095  11.799  12.263   9.300  17.193  18.314  17.893  16.772  20.269
   13.834  11.785  14.400  16.123  12.072  15.417  15.424  16.421  17.567  16.712
   10.853  13.112  12.938  13.250  15.309  16.198  15.336  13.352  15.622  15.902
   10.173  11.440  12.984  11.723  11.486  10.724  11.615  14.488  15.443  12.572
    7.684   8.497  10.718   8.441   8.815   8.690   8.882  11.995  11.699  11.854

    0.300  19.030
   20.986  15.482  15.482  20.195  17.384  14.793  17.401  16.575  18.110  20.956
   17.804  15.134  16.913  12.635  19.531  17.768  18.756  17.641  16.862  19.564
   16.687  17.285  15.707  18.403  16.624  17.842  17.919  16.893  18.844  20.558
   20.992  15.483  16.923  16.046  15.437  16.802  18.905  16.498  21.813  20.787
   15.787  14.100  14.281  15.245  14.512  17.864  16.920  19.033  21.498  17.859
   15.472  15.258  11.825  12.736   9.665  18.035  18.116  18.700  16.578  20.355
   14.062  12.208  14.486  15.785  12.776  14.071  15.035  16.462  17.224  17.008
   10.951  13.403  13.483  13.608  14.325  14.947  15.042  13.185  15.103  15.867
   10.285  10.577  13.329  12.268  11.425   9.769  11.576  14.535  16.389  12.192
    7.840   8.353  11.064   8.221   9.151   8.503   8.726  11.479  11.505  11.862

    0.350  18.802
   19.959  16.009  15.739  20.005  17.697  15.443  16.790  16.021  18.714  20.945
   17.750  15.225  17.676  11.554  20.026  18.454  18.408  18.379  17.393  19.997
   17.295  16.412  15.473  19.254  17.865  17.584  18.045  16.899  17.722  20.359
   21.161  15.908  16.827  16.463  15.150  17.195  19.363  17.245  21.783  20.678
   15.989  13.265  14.131  14.862  14.644  17.026  16.138  19.218  21.298  18.170
   15.925  14.996  12.081  12.672  10.038  17.598  17.786  18.462  16.457  20.771
   13.411  11.883  14.772  15.584  12.585  14.205  15.237  15.998  17.524  16.120
   10.170  12.877  13.417  13.170  13.433  15.594  14.910  13.389  14.935  16.837
    9.194  10.567  13.147  12.613  12.184   9.839  11.846  14.129  17.015  12.248
    7.289   8.567  10.936   8.025   9.389   8.963   9.681  11.573  11.388  12.069

    0.400  18.756
   19.437  15.592  15.929  20.348  17.862  16.528  16.569  15.421  19.228  21.862
   16.478  15.905  18.110  11.636  20.327  18.603  18.185  18.305  17.528  20.127
   17.555  16.208  15.408  18.948  17.975  17.760  18.562  17.156  17.580  20.336
   21.071  16.508  17.895  16.507  15.237  16.519  18.198  17.754  21.754  20.167
   15.903  13.636  14.732  15.023  14.490  17.193  16.707  19.649  21.233  17.514
   16.142  13.912  13.157  12.323  10.878  17.480  17.414  17.570  16.195  20.697
   13.127  11.521  15.195  16.016  12.152  13.427  15.594  15.270  17.665  17.078
    9.620  12.566  12.302  12.348  13.688  16.420  14.236  13.589  15.210  16.737
    8.756  10.455  12.855  11.882  12.073  10.322  11.656  14.330  15.733  12.582
    7.733   7.346  10.474   8.435   9.841   7.450   9.643  11.304  10.895  12.015

    0.450  17.879
   19.526  15.684  16.204  20.928  17.957  18.030  15.567  15.911  19.278  21.706
   18.010  15.490  17.653  13.090  19.535  18.309  18.375  19.030  18.078  19.655
   17.289  16.202  15.357  19.303  18.091  17.939  18.118  17.571  17.420  20.041
   20.800  16.818  17.075  15.178  15.268  17.076  17.010  16.821  22.789  20.113
   15.904  14.068  14.870  15.084  13.985  18.085  16.348  20.892  20.858  16.235
   16.305  14.585  13.784  12.090  10.126  15.844  17.705  17.543  16.171  19.819
   13.964  12.461  14.530  16.253  11.544  13.893  15.900  15.064  18.740  16.271
   10.283  12.273  12.367  11.509  12.875  15.900  14.474  14.179  14.462  16.937
    8.763   9.981  12.166  11.265  12.472   9.224  12.059  14.517  15.374  12.977
    7.737   7.170   9.528   8.446   9.663   6.735   8.620  12.466  11.031  12.298

    0.500  18.073
   19.694  15.152  16.370  21.304  16.858  18.307  15.371  16.030  18.805  21.312
   19.118  15.110  17.245  13.602  19.341  18.387  19.024  19.374  17.563  19.163
   17.667  16.512  14.909  18.914  17.235  17.557  17.193  17.631  16.832  20.036
   20.128  17.184  17.101  15.942  15.308  17.319  18.408  16.569  22.541  19.704
   16.938  13.677  14.150  15.688  13.610  17.438  16.008  20.684  20.876  15.258
   16.441  14.772  13.319  13.684  10.317  16.162  18.586  17.688  16.522  19.936
   14.753  12.219  14.274  15.920  10.639  14.267  15.377  16.380  18.548  16.361
   10.622  11.848  12.684  12.042  13.393  16.658  15.372  13.344  14.418  15.412
    9.597  10.038  13.084  11.400  12.233  10.017  11.644  15.039  15.453  13.503
    7.105   7.474   9.968   8.112  10.177   6.883   9.346  12.660  11.003  11.986

    0.550  17.886
   19.371  15.750  16.383  22.613  16.619  18.359  15.999  16.302  17.962  21.408
   18.352  14.781  17.559  14.443  19.661  17.835  20.095  18.957  18.091  18.265
   18.039  16.780  15.400  18.470  17.408  16.987  17.590  18.386  17.616  19.934
   20.458  16.777  17.498  16.972  14.946  17.256  18.049  16.306  21.963  20.523
   17.041  13.040  13.721  14.113  13.747  18.223  17.137  19.002  20.862  15.907
   15.146  15.765  13.800  14.732  10.277  15.270  18.956  18.626  16.765  20.246
   15.157  12.466  15.318  16.594  10.049  13.687  15.829  15.591  18.999  16.807
   10.400  12.112  12.322  10.998  13.034  16.008  16.273  14.072  14.908  16.167
    9.506   9.981  12.960  11.634  11.649  10.225  12.614  15.301  16.386  12.694
    7.859   7.469  10.360   8.578   9.625   6.640   9.544  13.942  11.764  11.359

    0.600  17.860
   19.390  15.416  16.019  21.034  17.127  18.178  15.400  16.143  18.913  22.013
   18.277  14.352  17.497  14.395  19.856  17.759  20.394  19.530  18.120  18.041
   18.426  15.717  15.607  18.007  17.694  16.892  18.402  17.213  17.488  19.940
   20.240  16.603  16.783  18.128  14.737  17.558  18.611  16.935  22.626  20.216
   16.764  14.535  13.462  14.381  14.783  18.132  17.383  18.121  20.961  16.451
   14.898  15.095  13.673  14.511  10.027  16.042  19.106  18.609  16.308  20.293
   15.901  12.209  15.004  16.345  10.664  13.066  15.881  16.097  18.522  16.484
   11.317  11.454  12.178  11.295  12.353  15.764  15.926  14.106  13.502  16.003
    9.117   9.664  13.080  10.882  11.908  10.073  12.490  15.078  16.339  12.109
    7.301   6.801   9.700   8.563   9.393   7.152  10.388  14.504  11.674  11.215

    0.650  17.418
   19.465  16.050  17.043  20.518  16.308  17.613  16.279  17.063  19.569  21.636
   18.266  15.188  17.718  14.985  20.368  18.036  19.112  20.377  17.816  18.232
   17.921  14.726  15.301  17.841  17.883  17.057  18.400  17.332  17.369  19.053
   20.457  16.496  16.225  17.710  14.240  17.927  18.503  17.242  23.178  20.170
   16.762  15.351  12.793  14.831  14.455  18.199  17.014  18.158  21.140  15.505
   14.451  14.603  12.774  15.049  11.028  16.198  20.065  18.909  15.850  20.044
   16.079  12.902  14.776  16.004  11.047  12.713  17.151  15.403  18.011  16.608
   11.466  11.145  12.922  12.549  12.501  15.263  16.361  13.044  13.363  15.897
    9.916  10.340  14.325  11.550  12.050  10.612  11.761  13.631  15.632  13.953
    7.615   6.742   9.563   8.968   9.188   7.072  10.229  14.979  11.254  11.698

    0.700  17.948
   19.639  16.570  16.286  20.337  15.944  18.390  16.534  17.088  19.602  22.091
   17.716  14.567  19.171  15.218  20.447  18.093  19.804  20.896  17.908  18.259
   17.543  14.806  15.019  17.611  17.371  17.148  18.997  17.977  17.808  18.979
   19.904  16.339  15.623  17.253  14.447  17.495  18.062  17.558  23.036  20.516
   16.563  15.525  13.323  15.361  14.896  18.303  17.124  17.469  19.812  15.959
   14.208  14.995  13.886  14.478  11.028  16.546  20.878  19.230  16.185  20.698
   15.060  12.457  14.768  16.271  10.105  12.857  17.807  15.964  18.293  16.522
   11.461  10.597  12.978  13.629  12.100  15.304  15.739  13.786  13.898  15.604
    9.296  10.835  14.929  11.704  12.570  10.515  12.842  13.611  15.772  14.187
    9.234   7.486   8.836   8.903   9.127   6.634  10.000  14.911  10.138  11.714

    0.750  17.738
   19.173  17.272  16.244  19.795  16.467  17.591  16.544  16.157  18.785  22.567
   16.861  14.505  19.774  15.825  20.272  18.644  19.769  21.087  17.643  17.987
   17.703  15.447  14.321  17.875  16.941  16.747  17.806  17.669  17.753  19.538
   20.909  15.145  14.456  17.370  14.799  16.886  17.939  18.415  22.436  21.123
   16.719  14.822  13.566  15.277  15.299  18.606  17.336  18.106  19.743  16.394
   14.498  14.934  14.676  14.837  11.387  16.591  20.932  18.314  16.222  21.616
   15.290  11.921  15.543  15.945  10.841  13.008  17.599  15.246  18.560  16.160
   11.804   9.819  13.522  13.087  11.872  15.827  16.112  14.477  14.038  16.083
    9.241  11.512  15.404  11.542  12.822  10.727  12.983  13.016  16.605  14.107
    9.390   7.511   9.200   8.785   8.875   6.652   9.069  15.701   9.456  12.607

    0.800  17.468
   19.750  17.266  16.527  19.685  15.730  17.875  17.120  16.299  18.399  22.107
   16.568  14.530  19.606  15.942  19.996  19.890  20.061  20.874  18.072  17.575
   17.647  15.024  14.845  17.608  16.595  17.482  17.821  17.718  16.455  20.035
   21.764  15.355  15.137  16.533  14.559  17.692  17.522  17.644  22.258  21.790
   16.457  15.265  12.887  15.141  15.084  19.015  17.638  19.233  19.761  17.217
   15.230  15.117  13.804  14.635  11.784  17.062  20.893  17.986  16.106  21.828
   14.608  11.645  15.275  15.429  10.688  13.533  16.707  14.859  18.348  16.576
   11.862   9.124  12.957  12.877  12.376  15.805  16.402  14.760  14.373  16.210
   10.544  11.506  15.190  11.589  12.315  10.705  12.978  12.531  16.333  13.394
    9.390   7.644   9.756   9.412   8.967   6.394  10.414  15.274  10.551  12.304

    0.850  16.599
   19.482  16.664  16.792  18.591  16.009  17.177  17.795  16.282  17.051  22.189
   16.589  15.217  19.195  15.992  20.052  19.235  20.117  20.114  18.140  18.615
   17.644  15.320  15.292  17.446  16.617  17.283  18.666  17.136  16.997  20.976
   21.052  15.595  14.684  17.340  14.067  17.230  18.089  18.824  21.694  21.611
   16.220  14.769  13.294  15.245  15.119  19.392  17.829  18.875  20.805  16.926
   15.681  15.354  14.624  14.852  11.428  16.741  20.423  17.712  16.465  21.843
   13.834  11.305  15.107  16.336   9.995  13.045  16.696  15.762  17.811  16.129
   11.687   8.582  11.964  12.690  12.345  15.724  16.453  14.349  15.502  16.930
   12.693  11.921  15.299  11.850  11.357  11.335  12.641  12.251  15.965  12.679
    9.179   8.224  10.416   9.654   9.530   6.438  10.822  15.304   9.983  12.126

    0.900  16.009
   18.500  16.233  16.677  18.593  16.161  16.854  17.563  16.905  17.031  21.278
   16.521  15.189  19.151  15.935  19.163  18.531  19.376  20.468  17.832  18.793
   18.409  15.505  15.275  19.184  15.950  17.120  18.326  16.804  17.976  21.400
   21.086  15.208  15.016  17.653  14.829  18.406  18.728  19.265  21.976  22.078
   16.637  13.454  14.015  14.296  15.293  19.240  18.482  18.671  20.015  17.168
   15.768  15.093  14.360  15.696  12.311  15.696  21.008  17.061  16.414  21.568
   14.555  11.957  16.604  16.424   9.886  12.483  16.731  16.197  17.182  16.431
   12.322   9.067  13.076  12.797  12.620  16.350  16.691  14.552  15.675  16.607
   12.660  12.208  13.703  11.399  11.578  11.947  13.034  12.698  15.744  12.569
    8.817   8.377  10.897   9.528  10.144   8.230  10.874  14.908  10.243  11.506

    0.950  16.112
   18.936  17.057  16.256  18.660  16.939  16.591  17.986  16.583  17.027  21.151
   18.444  15.003  19.660  15.947  19.018  18.589  19.814  19.740  16.566  18.486
   18.164  16.330  15.683  19.641  16.045  16.425  18.439  17.561  18.564  21.584
   20.955  16.161  14.821  18.759  16.676  18.146  17.699  18.709  21.888  21.195
   16.740  13.628  13.839  14.271  16.693  18.962  18.307  18.175  19.865  16.805
   15.693  14.286  13.878  16.492  13.052  15.424  21.708  16.573  17.218  20.921
   14.499  11.088  16.606  16.190  10.088  11.324  16.594  16.578  16.814  16.995
   12.166   9.357  13.935  12.414  12.476  15.434  16.046  15.096  16.123  16.249
   11.690  12.428  13.284  11.490  11.309  11.851  14.374  12.374  14.823  13.149
    8.539   8.421  10.929   9.397  10.492   8.100  10.889  14.881  10.288  11.472

    1.000  16.439
   18.586  16.717  17.050  18.759  17.575  16.066  17.832  16.380  17.136  21.819
   17.998  15.649  18.980  15.076  19.424  19.205  20.786  19.612  17.804  18.566
   18.133  16.221  14.695  19.543  16.153  15.727  17.862  17.881  18.683  21.923
   21.155  17.435  15.115  18.342  17.015  18.830  17.706  18.260  22.181  21.711
   17.210  14.378  14.823  14.854  17.279  18.719  17.705  17.398  20.625  15.909
   15.732  14.122  13.794  15.122  12.117  14.476  20.978  16.842  17.747  20.039
   14.998  11.370  17.320  15.747   9.990  11.339  16.198  16.319  17.627  16.823
   12.731   9.830  13.837  13.418  13.426  14.915  16.488  14.310  15.803  16.440
   11.314  11.906  13.758  12.288  11.262  10.956  13.718  12.976  14.362  13.892
    8.108   9.125  10.179   9.850  10.696   8.822  10.368  13.866   9.871  11.554

    1.050  17.577
   18.268  17.557  17.457  18.446  16.723  15.312  18.285  15.469  17.985  22.219
   18.001  15.379  19.359  14.165  21.270  19.200  20.412  19.235  18.249  19.086
   18.081  15.789  15.865  20.257  16.408  15.694  18.159  17.482  19.158  22.431
   21.249  17.416  15.516  18.174  17.010  18.702  17.390  17.216  22.977  21.652
   17.692  14.056  14.327  14.935  17.704  18.107  17.329  17.096  19.908  15.836
   15.694  13.994  14.164  15.048  12.356  14.247  20.621  16.065  17.841  19.957
   14.561  11.218  17.800  15.569   9.836  12.128  16.617  16.188  17.793  17.680
   12.992   9.806  12.316  13.990  13.189  14.978  15.674  14.616  15.386  15.457
   11.535  12.422  13.612  11.438  11.919  10.601  13.405  13.157  14.695  14.290
    8.534   8.135   9.569  10.005  11.396   9.792   9.934  14.490  10.157  11.881

    1.100  17.845
   17.642  18.389  17.641  19.545  16.528  15.678  19.037  16.466  18.411  22.215
   18.217  14.834  19.087  14.476  21.644  18.754  19.744  18.949  17.287  20.151
   18.699  15.462  15.746  20.129  15.811  15.658  17.260  17.376  19.446  22.070
   20.797  18.017  14.935  17.796  17.831  17.346  17.553  17.712  21.959  22.467
   17.701  13.444  13.277  15.224  16.494  18.241  17.409  17.270  18.681  16.083
   15.878  14.017  13.801  14.449  13.050  13.694  20.282  15.530  17.946  19.771
   14.266  11.677  17.453  13.793  10.035  12.299  16.795  16.230  17.846  18.599
   13.115  10.424  12.049  13.628  14.578  14.577  15.606  14.545  16.263  14.407
   12.414  12.014  13.896  11.760  13.426  10.719  13.786  13.908  15.675  14.182
    7.951   8.931  10.004  10.249  10.862  10.958  10.365  13.815  10.406  11.472

    1.150  17.126
   17.495  17.903  17.448  20.302  16.148  15.320  18.845  15.378  18.973  21.821
   18.596  15.103  19.586  14.683  21.198  19.050  20.347  19.607  17.950  20.851
   18.617  15.406  15.694  19.200  15.952  16.174  17.328  17.966  19.630  21.672
   20.854  17.740  15.322  18.186  17.480  17.121  17.795  17.232  22.076  22.322
   17.631  13.576  13.441  16.351  15.185  17.750  17.513  16.637  19.153  15.742
   15.509  13.587  13.427  14.237  13.193  14.671  20.750  15.498  17.985  19.608
   14.625  10.821  15.826  13.901   9.672  12.395  16.688  16.346  17.024  18.483
   13.509  10.748  13.243  13.358  15.435  14.444  14.662  14.980  15.788  14.499
   13.206  12.846  14.080  11.400  12.576  10.108  13.301  13.639  15.720  13.978
    7.299   8.622   9.069  10.281  11.677  11.068   9.997  13.901  10.390  11.132

    1.200  16.794
   16.828  18.325  18.351  19.788  16.505  15.832  19.499  15.174  19.038  21.828
   19.056  15.327  20.060  15.516  20.863  18.537  20.727  19.767  17.773  19.738
   18.393  16.176  15.665  17.526  16.660  16.408  17.272  17.307  19.573  22.470
   20.024  17.943  14.372  18.595  18.156  17.125  17.213  17.259  22.112  22.349
   17.931  13.797  13.189  16.400  15.208  18.693  18.038  16.798  19.541  15.241
   16.239  12.634  12.779  14.346  13.337  14.899  21.716  16.729  17.994  19.832
   15.205  10.535  15.928  13.224   8.947  13.370  17.064  16.124  16.796  18.153
   14.524  11.405  13.270  13.703  15.138  14.014  14.829  15.499  15.901  14.503
   13.955  13.664  13.702  11.734  12.696  10.112  12.529  13.724  14.895  14.224
    7.498   8.843   9.312  11.415  11.810  11.725  10.825  13.849  11.500  10.550

    1.250  16.875
   18.259  18.002  16.752  18.785  16.737  15.305  20.230  15.281  18.390  21.906
   18.416  14.681  19.263  15.630  21.125  19.405  21.258  20.202  18.538  19.135
   18.189  16.273  15.431  17.244  17.477  16.999  17.315  17.428  19.618  22.192
   19.245  17.499  14.846  17.990  18.557  16.738  17.699  17.189  21.817  20.971
   17.845  13.620  12.846  16.091  15.206  18.624  17.785  16.281  20.509  16.316
   17.458  13.574  11.945  13.742  13.435  14.993  21.210  17.520  18.480  19.134
   15.875  10.397  15.281  12.862   9.005  13.468  16.786  16.068  16.419  17.383
   14.865  12.235  13.262  13.423  14.502  13.734  15.270  15.917  16.603  13.838
   13.781  13.901  13.505  11.485  12.452   9.966  12.623  12.721  14.507  14.646
    7.716   7.919   8.722  11.447  11.058  10.710  11.548  14.635  12.364  10.698

    1.300  17.145
   18.540  18.552  16.164  19.362  16.478  15.148  19.309  15.572  18.394  21.582
   17.862  15.380  19.751  14.564  20.420  19.093  20.757  19.963  18.879  18.797
   18.019  15.373  15.577  18.372  17.030  16.324  17.808  17.093  19.344  21.720
   18.950  16.773  14.913  18.032  17.615  16.332  17.264  16.983  22.437  21.676
   17.625  13.072  12.632  16.887  14.733  19.246  17.663  15.744  19.877  16.156
   17.135  14.971  12.866  13.732  14.053  15.990  20.604  17.569  18.771  19.724
   15.873  11.082  15.532  12.880   9.804  13.542  16.941  15.026  16.810  18.052
   14.503  11.718  13.631  13.628  14.793  12.492  15.982  15.379  16.596  13.825
   14.327  14.770  13.047  11.368  12.083   9.569  11.786  12.833  15.169  15.185
    6.806   8.449   8.122  11.698  11.054  10.677  12.130  13.734  11.615  11.294

    1.350  16.829
   19.015  18.086  16.972  19.323  14.930  15.207  19.423  15.320  17.852  21.501
   17.694  16.629  19.257  14.757  20.163  18.295  20.091  20.275  18.412  18.246
   17.590  15.199  15.826  18.291  16.635  15.549  17.943  17.129  20.100  22.040
   18.976  15.485  14.972  17.930  17.737  16.486  16.880  16.708  22.160  22.550
   17.220  13.326  12.468  17.368  14.810  19.214  17.439  16.337  20.335  16.069
   17.145  15.561  13.897  12.756  13.562  15.818  21.014  18.440  18.345  19.947
   16.065  10.638  15.134  12.079  10.338  13.189  16.275  15.666  16.587  17.998
   14.205  11.116  13.573  13.637  15.117  12.297  16.233  15.295  15.573  14.193
   13.977  15.316  12.758  11.330  13.210   9.134  11.533  12.491  15.376  14.824
    6.639   8.502   8.050  11.463  10.904  10.628  11.996  12.212  11.507  12.383

    1.400  17.232
   19.113  16.688  16.639  18.160  13.932  15.455  19.835  15.276  18.517  21.411
   15.984  17.244  18.533  14.710  20.554  18.213  20.107  20.309  18.064  17.929
   17.331  15.732  15.888  18.779  16.537  16.756  18.456  17.495  20.059  21.995
   17.858  16.201  14.812  18.388  17.775  16.117  17.500  15.347  22.505  23.058
   17.201  13.695  12.990  18.344  14.234  19.650  17.563  15.927  19.876  16.275
   16.540  16.342  13.666  12.375  14.569  15.254  21.060  18.000  19.132  20.393
   16.806  10.380  15.426  12.727  10.594  13.607  15.523  15.467  17.162  18.000
   14.340  11.078  13.260  12.944  14.376  12.639  16.022  15.208  15.041  14.255
   14.179  14.631  12.286  11.314  12.823   9.209  11.991  13.004  15.269  14.441
    7.596   8.762   9.281  11.512  10.766  11.560  11.004  12.379  11.088  11.945

    1.450  15.817
   18.584  17.333  16.481  17.952  14.534  15.570  20.551  14.994  18.934  21.307
   16.030  16.482  18.738  14.495  20.902  19.292  21.097  21.151  17.276  17.563
   17.162  15.480  15.964  19.789  16.435  17.213  19.318  17.548  21.060  21.662
   18.428  16.137  15.092  18.783  18.688  15.788  16.700  15.666  22.791  23.602
   17.320  13.678  13.016  18.205  13.565  18.195  17.799  17.052  20.013  15.587
   15.691  16.769  12.862  12.844  14.086  15.495  20.437  17.630  18.716  20.565
   16.441  11.670  14.921  12.302  11.345  13.695  15.323  15.462  17.458  18.378
   15.103  10.547  12.979  13.061  13.639  13.061  16.036  15.775  15.464  14.495
   14.051  14.247  13.886  11.112  12.053  10.151  12.252  12.624  15.158  14.097
    7.505   9.937   9.782  11.503  11.105  12.000  10.564  13.064  11.455  12.665

    1.500  14.912
   18.416  17.868  16.821  18.422  14.355  15.532  19.536  15.745  18.235  21.290
   16.255  16.516  18.786  14.173  21.794  19.705  21.251  20.847  15.645  16.787
   17.467  16.531  15.513  19.777  16.310  17.699  17.732  17.376  20.485  20.761
   19.797  15.488  15.599  18.253  18.217  16.249  16.098  15.430  22.554  23.162
   17.056  13.593  13.147  17.880  13.922  18.007  19.243  17.423  19.873  16.005
   16.725  15.417  11.969  12.951  14.057  15.482  20.281  17.931  18.707  20.666
   16.310  11.156  14.515  12.738  10.922  12.779  15.045  15.475  16.917  18.545
   15.404  10.546  13.074  13.261  13.725  11.928  15.485  15.718  14.914  14.350
   14.058  14.554  14.454  11.931  11.888   8.909  12.218  12.210  14.432  14.086
    7.326   9.961   9.785  10.596  10.965  10.197   9.782  13.071  11.561  12.422

    1.550  15.614
   18.551  17.351  17.175  18.816  15.113  15.594  19.360  15.524  19.202  21.112
   15.796  17.081  19.107  15.152  21.633  19.423  20.640  20.001  16.647  16.894
   17.679  15.511  16.349  20.002  17.818  18.346  17.429  17.324  20.360  21.375
   18.506  15.781  15.884  17.796  17.102  15.026  16.440  16.448  21.944  22.657
   16.441  13.678  12.767  18.414  14.990  17.523  19.418  17.952  19.228  16.982
   16.971  15.592  12.603  13.749  14.045  15.323  19.733  18.984  19.693  21.559
   16.248  10.203  15.342  13.358  11.778  12.473  14.859  17.274  17.099  18.476
   15.337  10.107  12.580  12.877  13.765  12.640  16.011  14.905  15.166  13.906
   13.457  14.228  15.002  12.457  12.485   8.471  12.207  13.289  14.075  13.807
    7.734  10.626   9.882  10.669  10.502  10.397  10.056  12.320  12.176  13.475

    1.600  15.415
   18.186  18.221  16.972  18.057  14.941  15.074  19.059  15.574  19.752  20.983
   16.204  17.148  18.196  15.306  22.400  18.976  18.964  20.294  17.508  17.175
   17.140  15.715  16.764  19.936  18.221  18.579  17.652  17.320  20.071  20.492
   17.558  16.969  16.256  18.067  16.516  14.897  17.739  16.254  21.244  20.745
   16.503  13.642  13.438  18.770  14.339  17.497  19.305  18.989  19.731  15.376
   17.671  14.591  12.575  12.973  14.145  15.569  20.355  19.194  19.054  20.960
   15.819  10.836  15.189  13.319  12.418  11.708  14.300  17.877  16.914  18.670
   14.794  10.742  11.444  13.132  14.201  12.967  16.692  14.624  14.529  13.190
   13.654  14.921  15.801  12.112  13.213   8.827  12.227  12.818  14.093  14.146
    8.512  10.040   8.169  10.412  10.167  10.444  10.428  12.841  12.164  12.977

    1.650  15.512
   17.762  18.328  16.806  17.596  15.455  15.106  18.202  15.176  19.716  20.582
   16.606  16.256  18.970  15.760  22.438  19.087  20.100  21.506  16.652  17.418
   16.527  15.954  15.976  20.354  17.734  17.741  18.018  16.934  20.362  20.639
   17.246  16.180  16.330  17.620  15.884  15.393  18.226  16.291  21.678  21.871
   15.659  13.827  13.609  18.364  14.084  16.936  18.428  19.660  18.379  15.300
   17.642  14.983  12.413  12.937  13.374  15.300  19.873  18.920  18.528  21.027
   16.107  11.127  15.519  13.750  12.334  10.296  15.335  18.337  17.456  18.459
   14.951  11.162  11.798  13.560  14.211  12.599  15.394  13.883  13.418  12.422
   13.691  15.304  15.362  11.340  12.382   9.938  12.160  14.232  15.006  14.267
    8.171  10.136   7.442  11.181  10.089   9.883  10.212  12.201  12.248  12.884

    1.700  15.438
   18.764  17.696  16.700  18.123  15.806  15.660  17.691  15.071  20.454  20.344
   15.759  16.326  18.236  16.863  21.221  19.368  19.438  21.600  17.355  16.958
   17.167  16.012  15.578  20.332  17.519  17.451  17.690  18.135  19.744  21.433
   16.902  15.387  16.305  18.282  16.573  15.829  17.514  16.032  20.997  22.002
   15.761  13.264  13.977  19.522  14.565  16.851  18.879  19.256  18.444  15.807
   17.523  15.996  11.357  12.748  12.918  15.184  20.141  19.000  18.704  21.897
   15.924  11.376  15.939  13.485  13.139  11.957  15.276  18.315  17.031  19.298
   13.726  12.076  12.332  13.806  13.782  12.990  14.978  13.874  13.799  12.904
   13.583  15.618  15.560  10.966  12.925   9.546  11.671  13.923  15.559  13.715
    8.223  10.114   8.071  12.509   9.679  10.556  10.187  12.339  12.034  12.845

    1.750  15.836
   18.725  17.620  17.084  18.104  14.700  15.998  17.270  14.741  20.438  20.445