
This full-field turbulence file was generated by TurbSim (v1.40, 12-Sep-2008) on 27-May-2021 at 12:56:23.

 | w-comp |  Y  x  Z  | Grid Resolution (Y x Z) | Time-step | Hub Elev | Mean U |
            10    10     15.556     15.556          0.050      80.00      3.00

 Z Coordinates (m):
  -70.000 -54.444 -38.889 -23.333  -7.778   7.778  23.333  38.889  54.444  70.000

 Y Coordinates (m):
  -70.000 -54.444 -38.889 -23.333  -7.778   7.778  23.333  38.889  54.444  70.000

    0.000  -0.601
   -0.415   0.017   0.414   0.403   0.005   0.875   0.633  -0.029   0.476  -0.386
    0.309  -0.879   0.391   0.074   0.225   0.412   0.793   0.497   0.355  -0.188
    0.889   0.552   0.468   1.142  -0.729   0.772  -0.169   0.828   0.303  -0.319
    0.157  -0.275   0.348   0.662   0.457  -0.515   0.407   0.304  -0.159   0.476
   -0.472   0.609  -0.631  -0.106   0.764  -0.505  -0.611  -0.039   0.222  -0.914
    0.911  -0.895   0.723   0.032   0.531  -0.137   0.447  -0.432  -0.424  -0.193
   -0.579  -0.396   0.112  -0.718  -1.325  -0.097   0.060   0.534  -0.031   0.435
   -0.510   0.104  -0.657  -1.137   0.452   0.746  -0.052   0.588  -1.069   0.353
   -0.574  -0.152   0.330  -0.415   0.724  -1.592  -0.170   0.432  -0.653  -0.250
    0.873  -0.081   0.796   0.067  -0.076  -0.348  -0.441  -0.344   0.176  -0.474

    0.050  -0.680
   -0.468  -0.084   0.273   0.190  -0.169   0.935   0.808  -0.126   0.418  -0.413
    0.482  -0.988   0.482   0.005   0.180   0.542   0.673   0.653   0.471  -0.037
    1.037   0.346   0.434   1.205  -0.677   0.737  -0.141   0.951   0.167  -0.486
    0.127  -0.244   0.364   0.724   0.510  -0.289   0.487   0.231  -0.296   0.449
   -0.740   0.686  -0.712  -0.182   0.899  -0.574  -0.958  -0.036   0.025  -1.009
    0.512  -0.899   0.617   0.069   0.420  -0.042   0.412  -0.493  -0.487  -0.434
   -0.538  -0.474  -0.015  -0.561  -1.225  -0.319  -0.127   0.311  -0.033   0.105
   -0.546   0.144  -0.518  -1.182   0.331   0.844   0.061   0.637  -0.881   0.481
   -0.458  -0.132   0.274  -0.644   0.991  -1.765   0.097   0.317  -0.588  -0.418
    0.895  -0.012   0.789  -0.033  -0.120  -0.360  -0.257  -0.303   0.062  -0.424

    0.100  -0.630
   -0.437  -0.126   0.116  -0.010  -0.139   1.067   0.912  -0.307   0.388  -0.308
    0.477  -0.987   0.451   0.055  -0.199   0.566   0.672   0.627   0.879  -0.171
    1.050   0.481   0.278   1.280  -0.518   0.707  -0.383   0.818   0.168  -0.645
    0.225  -0.149   0.384   0.685   0.638  -0.369   0.423   0.297  -0.188   0.392
   -0.834   0.662  -0.527   0.008   1.012  -0.488  -0.893  -0.261   0.131  -1.025
    0.479  -0.954   0.484   0.031   0.494  -0.124   0.469  -0.527  -0.680  -0.428
   -0.489  -0.691   0.182  -0.472  -1.067  -0.367  -0.272   0.192  -0.058  -0.004
   -0.401   0.253  -0.459  -1.214   0.263   0.698  -0.140   0.665  -0.917   0.543
   -0.378  -0.136   0.313  -0.624   0.848  -1.582  -0.114   0.285  -0.316  -0.429
    0.744  -0.118   1.025   0.097  -0.021  -0.128  -0.427  -0.441  -0.168  -0.442

    0.150  -0.447
   -0.271  -0.231   0.019  -0.161   0.018   0.984   0.877  -0.503   0.491  -0.164
    0.585  -1.026   0.605   0.212  -0.173   0.589   0.702   0.533   0.986  -0.184
    1.057   0.386   0.287   1.458  -0.308   0.706  -0.196   0.882  -0.024  -0.514
    0.220  -0.035   0.387   0.843   0.598  -0.364   0.329   0.441  -0.444   0.642
   -0.686   0.536  -0.820   0.015   0.978  -0.413  -0.820  -0.387  -0.026  -0.980
    0.502  -0.994   0.560   0.025   0.242   0.004   0.538  -0.548  -0.745  -0.328
   -0.511  -0.739   0.192  -0.443  -1.042  -0.375  -0.354   0.534  -0.060   0.096
   -0.335   0.278  -0.556  -1.384   0.297   0.499  -0.169   0.722  -0.868   0.428
   -0.333  -0.312   0.301  -0.728   0.852  -1.489  -0.323   0.518  -0.207  -0.660
    0.693  -0.018   1.066   0.270  -0.054   0.110  -0.575  -0.083  -0.184  -0.651

    0.200  -0.525
   -0.178  -0.093   0.012  -0.066  -0.237   0.923   0.864  -0.377   0.578  -0.441
    0.586  -1.286   0.474   0.264  -0.092   0.597   0.894   0.462   1.053  -0.069
    0.855   0.383   0.290   1.379  -0.334   0.865   0.090   0.910  -0.020  -0.336
    0.323  -0.093   0.323   0.821   0.570  -0.470   0.475   0.638  -0.502   0.579
   -0.597   0.655  -0.900  -0.006   0.873  -0.542  -0.746  -0.447  -0.013  -0.648
    0.563  -1.109   0.447   0.112   0.177  -0.036   0.589  -0.558  -0.669  -0.440
   -0.671  -0.831   0.201  -0.294  -1.058   0.029  -0.420   0.418   0.055   0.202
   -0.208   0.129  -0.589  -1.209   0.412   0.558  -0.056   0.726  -0.817   0.542
   -0.252  -0.242   0.273  -0.734   0.998  -1.572  -0.331   0.316  -0.356  -0.570
    0.728   0.070   1.050   0.181  -0.037   0.048  -0.530   0.046   0.002  -0.649

    0.250  -0.430
   -0.276  -0.209   0.222   0.320  -0.364   0.625   1.026  -0.549   0.592  -0.541
    0.450  -1.254   0.615   0.313  -0.047   0.498   0.844   0.660   1.227   0.108
    0.688   0.490   0.364   0.990  -0.228   0.975   0.194   0.959   0.012  -0.191
    0.663  -0.076   0.211   0.612   0.335  -0.531   0.394   0.607  -0.510   0.895
   -0.511   0.628  -0.809  -0.025   0.972  -0.754  -0.828  -0.475  -0.061  -0.817
    0.601  -1.117   0.410   0.230   0.260  -0.084   0.471  -0.512  -0.530  -0.583
   -0.701  -0.743   0.193  -0.203  -0.954   0.073  -0.380   0.445   0.100   0.140
   -0.190   0.201  -0.309  -1.106   0.255   0.714  -0.021   0.844  -0.685   0.631
   -0.483  -0.137   0.229  -0.745   0.932  -1.575  -0.424   0.447  -0.374  -0.624
    0.613   0.123   1.120   0.183  -0.342   0.043  -0.469  -0.136   0.024  -0.533

    0.300  -0.376
   -0.008  -0.435   0.008   0.507  -0.179   0.461   1.019  -0.269   0.624  -0.199
    0.523  -1.058   0.744   0.493  -0.204   0.286   0.921   0.720   1.092   0.047
    0.460   0.547   0.578   0.856  -0.117   1.006   0.172   0.973  -0.061   0.080
    0.654  -0.210   0.488   0.465   0.453  -0.443   0.548   0.526  -0.529   0.846
   -0.466   0.651  -0.594  -0.136   1.070  -0.677  -0.384  -0.463  -0.047  -0.848
    0.475  -1.191   0.482   0.151   0.163  -0.260   0.336  -0.816  -0.425  -0.619
   -0.641  -0.809   0.267  -0.053  -1.011  -0.008  -0.367   0.637  -0.002   0.160
   -0.302   0.021  -0.180  -1.176   0.415   0.338  -0.083   0.694  -0.585   0.699
   -0.613  -0.161   0.190  -0.623   0.907  -1.472  -0.428   0.276  -0.473  -0.753
    0.621   0.085   1.082   0.229  -0.443  -0.072  -0.303  -0.304  -0.071  -0.475

    0.350  -0.305
   -0.111  -0.218   0.005   0.258  -0.211   0.430   0.916  -0.147   0.637  -0.175
    0.545  -1.044   0.653   0.419  -0.222   0.422   0.944   0.548   0.799  -0.069
    0.250   0.702   0.350   0.865  -0.045   0.955   0.192   0.733  -0.136  -0.079
    0.726  -0.283   0.470   0.586   0.402  -0.494   0.546   0.458  -0.641   0.814
   -0.524   0.612  -0.717  -0.097   1.113  -0.660  -0.311  -0.168  -0.178  -0.951
    0.479  -1.218   0.114  -0.068  -0.121  -0.078   0.406  -0.822  -0.296  -0.609
   -0.500  -0.591   0.107  -0.077  -1.038  -0.122  -0.185   0.880   0.050   0.224
   -0.436  -0.078  -0.283  -1.021   0.559   0.263   0.043   0.673  -0.507   0.871
   -0.638  -0.330   0.114  -0.620   0.881  -1.217  -0.488   0.176  -0.432  -0.828
    0.531   0.288   0.827   0.223  -0.432   0.138  -0.174  -0.527  -0.112  -0.637

    0.400  -0.212
   -0.047  -0.180  -0.139   0.465  -0.083   0.487   0.975  -0.111   0.688  -0.193
    0.700  -0.846   0.596   0.227  -0.323   0.148   0.951   0.458   0.734  -0.026
    0.308   0.672   0.437   0.655   0.084   1.065   0.168   0.796  -0.137  -0.027
    0.794  -0.167   0.430   0.703   0.441  -0.512   0.547   0.495  -0.667   0.733
   -0.508   0.401  -0.611  -0.105   1.024  -0.734  -0.381  -0.025  -0.155  -0.828
    0.561  -1.132   0.059   0.012  -0.130  -0.053   0.337  -0.686  -0.307  -0.442
   -0.531  -0.629  -0.022   0.015  -1.078  -0.137  -0.048   0.871  -0.022   0.087
   -0.626   0.030  -0.411  -0.858   0.542   0.539  -0.093   0.610  -0.548   0.894
   -0.899  -0.483   0.201  -0.776   0.896  -1.164  -0.341   0.215  -0.368  -0.748
    0.514   0.520   0.642   0.209  -0.304   0.043  -0.266  -0.496  -0.142  -0.528

    0.450  -0.393
   -0.004  -0.240  -0.109   0.204   0.042   0.464   1.129  -0.126   0.632  -0.243
    0.899  -0.654   0.517   0.169  -0.492   0.169   0.803   0.563   0.658   0.039
    0.463   0.627   0.552   0.543   0.185   1.191   0.295   0.863  -0.238   0.053
    0.690  -0.176   0.462   0.434   0.456  -0.590   0.215   0.573  -0.489   1.044
   -0.710   0.325  -0.610  -0.143   1.008  -0.652  -0.380   0.095  -0.139  -0.525
    0.768  -1.041   0.026   0.029   0.168  -0.333   0.126  -0.396  -0.223  -0.553
   -0.623  -0.799   0.163  -0.104  -1.235  -0.304   0.140   0.720  -0.171  -0.015
   -0.466  -0.150  -0.284  -1.030   0.467   0.386   0.042   0.651  -0.592   0.913
   -1.068  -0.596   0.406  -0.791   1.018  -1.135  -0.098   0.187  -0.370  -0.877
    0.326   0.195   0.570   0.142  -0.458  -0.015  -0.410  -0.140   0.123  -0.484

    0.500  -0.248
    0.016  -0.090  -0.180   0.330   0.132   0.683   1.031  -0.235   0.762  -0.282
    0.860  -0.643   0.353   0.228  -0.524   0.370   0.800   0.671   0.538  -0.035
    0.468   0.621   0.691   0.700   0.092   1.306   0.206   0.847  -0.285   0.202
    0.558  -0.293   0.360   0.520   0.414  -0.655   0.357   0.705  -0.570   1.185
   -0.765   0.429  -0.573  -0.188   0.872  -0.744  -0.730   0.259   0.179  -0.544
    0.459  -0.953   0.074  -0.122   0.048  -0.502   0.009  -0.487  -0.263  -0.601
   -0.778  -0.842  -0.159  -0.131  -1.193  -0.290   0.056   0.668  -0.198   0.010
   -0.469  -0.078  -0.119  -1.077   0.539   0.012   0.079   0.521  -0.521   0.874
   -0.892  -0.618   0.294  -0.689   1.073  -1.181  -0.066   0.219  -0.375  -0.898
    0.424   0.186   0.587   0.083  -0.667   0.100  -0.298   0.039   0.098  -0.645

    0.550  -0.390
    0.111  -0.016  -0.269   0.649   0.028   0.586   0.918  -0.329   0.627  -0.297
    0.773  -0.694   0.311   0.058  -0.385   0.474   1.003   0.590   0.637  -0.218
    0.415   0.589   0.614   0.570  -0.102   1.182   0.264   0.735   0.045   0.018
    0.750  -0.199   0.443   0.462   0.434  -0.508   0.285   0.824  -0.537   0.826
   -0.615   0.274  -0.349  -0.022   0.942  -0.552  -0.540   0.352   0.166  -0.581
    0.521  -0.850   0.072  -0.252  -0.032  -0.589   0.161  -0.650  -0.296  -0.452
   -0.895  -0.822  -0.168  -0.072  -0.972  -0.001  -0.050   0.683  -0.450  -0.016
   -0.387  -0.160  -0.256  -1.046   0.463   0.048   0.215   0.397  -0.512   0.739
   -0.854  -0.628   0.285  -0.465   1.102  -1.297  -0.254   0.294  -0.304  -1.058
    0.691   0.435   0.452   0.235  -0.690   0.144  -0.190  -0.058   0.082  -0.654

    0.600  -0.410
    0.269  -0.133  -0.144   0.682  -0.053   0.512   0.858  -0.396   0.583  -0.294
    0.606  -0.740   0.097   0.046  -0.318   0.464   1.043   0.638   0.635  -0.051
    0.503   0.551   0.459   0.663   0.006   1.112   0.017   0.704  -0.116  -0.111
    0.892  -0.242   0.441   0.161   0.152  -0.465   0.491   0.698  -0.587   0.658
   -0.723   0.107  -0.539   0.055   0.987  -0.696  -0.452   0.430   0.256  -0.346
    0.502  -0.661   0.187  -0.306   0.009  -0.597   0.187  -0.747  -0.506  -0.159
   -0.803  -0.781  -0.167  -0.022  -0.880  -0.008   0.126   0.837  -0.315  -0.051
   -0.294  -0.095  -0.251  -1.317   0.374   0.082   0.173   0.401  -0.491   0.978
   -1.011  -0.550   0.098  -0.478   1.163  -1.115  -0.269   0.241  -0.322  -1.028
    0.802   0.333   0.583   0.239  -0.738   0.497  -0.212  -0.276   0.042  -0.564

    0.650  -0.281
    0.416  -0.191  -0.202   0.860  -0.134   0.475   0.999  -0.331   0.477  -0.341
    0.708  -0.899   0.049   0.093  -0.254   0.192   1.194   0.706   0.688   0.077
    0.465   0.557   0.216   0.829   0.128   1.311   0.024   0.640  -0.178  -0.194
    0.725  -0.277   0.514   0.351   0.140  -0.278   0.622   0.760  -0.461   0.532
   -0.944   0.234  -0.549  -0.051   0.922  -0.669  -0.288   0.645   0.292  -0.251
    0.266  -0.722   0.269  -0.077   0.055  -0.673   0.184  -0.586  -0.550  -0.264
   -0.816  -0.558  -0.045   0.098  -0.866  -0.072   0.362   0.600  -0.141  -0.051
   -0.491  -0.036  -0.001  -1.287   0.337  -0.038  -0.036   0.467  -0.547   0.797
   -1.144  -0.745   0.192  -0.410   1.194  -0.946  -0.449   0.180  -0.317  -0.991
    0.900   0.261   0.472   0.169  -0.705   0.578  -0.323  -0.401  -0.166  -0.546

    0.700  -0.226
    0.463  -0.071   0.078   0.883  -0.206   0.473   1.157  -0.065   0.504  -0.610
    0.762  -1.040  -0.009  -0.030  -0.374   0.275   1.168   0.608   0.640  -0.023
    0.563   0.393   0.282   0.769  -0.011   1.250   0.108   0.644  -0.012  -0.284
    0.323  -0.171   0.667   0.296   0.397  -0.468   0.767   0.679  -0.245   0.307
   -0.821  -0.016  -0.513  -0.069   1.179  -0.831  -0.007   0.697   0.549  -0.396
    0.394  -0.606   0.437  -0.147   0.040  -0.571   0.175  -0.411  -0.626  -0.447
   -0.982  -0.557   0.243  -0.013  -0.912  -0.143   0.261   0.640  -0.101  -0.312
   -0.514  -0.084  -0.143  -1.086   0.462  -0.194  -0.143   0.468  -0.584   0.720
   -1.286  -0.705   0.315  -0.225   1.255  -0.608  -0.452   0.289   0.106  -0.772
    1.027   0.376   0.310   0.435  -0.707   0.600  -0.183  -0.403  -0.086  -0.358

    0.750  -0.191
    0.291  -0.205   0.088   0.926  -0.176   0.522   1.265  -0.056   0.411  -0.573
    0.716  -1.023   0.058   0.132  -0.236   0.037   1.056   0.454   0.441  -0.025
    0.521   0.339   0.210   0.705   0.017   0.984   0.082   0.556   0.211  -0.002
    0.337  -0.018   0.488   0.384   0.328  -0.323   0.489   0.835  -0.195   0.335
   -0.865   0.129  -0.633  -0.009   1.157  -1.006  -0.133   0.716   0.842  -0.101
    0.554  -0.691   0.271  -0.087   0.053  -0.490   0.006  -0.319  -0.575  -0.285
   -0.872  -0.538   0.212  -0.306  -0.882  -0.321   0.553   0.494  -0.205  -0.424
   -0.638  -0.328  -0.108  -0.803   0.445  -0.051  -0.170   0.333  -0.638   0.511
   -1.211  -0.539   0.170  -0.105   0.995  -0.483  -0.468   0.134   0.087  -0.778
    0.823   0.396   0.295   0.336  -0.635   0.552  -0.033  -0.265  -0.111  -0.340

    0.800  -0.354
    0.482  -0.299   0.042   0.798   0.037   0.553   1.070  -0.031   0.413  -0.361
    0.830  -1.050   0.294   0.249  -0.354   0.161   0.954   0.427   0.313   0.049
    0.571   0.391   0.295   0.867  -0.060   1.127  -0.113   0.621  -0.057   0.311
    0.432  -0.190   0.508   0.411   0.226  -0.679   0.623   0.936  -0.186   0.537
   -0.905   0.344  -0.641  -0.020   1.025  -0.965  -0.105   0.487   0.949  -0.235
    0.410  -0.703   0.362  -0.085  -0.061  -0.311  -0.092  -0.436  -0.421  -0.110
   -0.856  -0.315   0.083  -0.406  -0.882  -0.243   0.556   0.674  -0.243  -0.185
   -0.663  -0.229  -0.184  -0.799   0.465  -0.117   0.050   0.278  -0.913   0.655
   -1.174  -0.446   0.464  -0.080   0.791  -0.666  -0.292   0.087   0.063  -0.561
    0.650   0.553   0.406   0.234  -0.674   0.596  -0.225  -0.557  -0.082  -0.590

    0.850  -0.464
    0.255  -0.271   0.260   0.704  -0.088   0.844   1.236   0.126   0.472  -0.538
    0.598  -1.107   0.194   0.374  -0.222  -0.018   0.750   0.363   0.411  -0.046
    0.678   0.340   0.350   0.874  -0.163   0.967   0.050   0.372   0.139   0.127
    0.458  -0.234   0.354   0.107   0.206  -0.424   0.455   0.884  -0.131   0.729
   -0.701   0.148  -0.612   0.092   1.047  -0.884   0.056   0.423   0.757  -0.118
    0.280  -0.696   0.324  -0.085   0.065  -0.129  -0.235  -0.279  -0.571  -0.129
   -0.924  -0.288   0.340  -0.449  -0.897  -0.149   0.337   0.595  -0.186  -0.168
   -0.483  -0.328  -0.270  -0.522   0.369   0.123  -0.006   0.123  -0.830   0.692
   -1.270  -0.518   0.579  -0.388   0.727  -0.688  -0.278   0.073   0.149  -0.489
    0.621   0.442   0.597   0.431  -0.518   0.577  -0.375  -0.501  -0.135  -0.359

    0.900  -0.377
    0.090  -0.429   0.289   0.839   0.078   0.869   1.280   0.001   0.353  -0.284
    0.487  -1.081   0.077   0.384  -0.041  -0.004   0.722   0.351   0.496  -0.031
    0.638   0.393   0.332   0.931  -0.248   0.879   0.081   0.253   0.271   0.084
    0.607  -0.364   0.351   0.155   0.067  -0.230   0.372   0.895  -0.233   0.864
   -0.500   0.209  -0.559  -0.102   0.886  -0.836  -0.122   0.274   0.605  -0.214
    0.425  -0.678   0.106  -0.138   0.095  -0.086   0.049  -0.328  -0.640  -0.017
   -1.105  -0.203   0.338  -0.506  -0.907  -0.368   0.058   0.567   0.058  -0.191
   -0.661  -0.547  -0.368  -0.513   0.268   0.172  -0.146  -0.078  -0.749   0.786
   -1.408  -0.554   0.676  -0.432   0.698  -0.841  -0.304   0.167   0.153  -0.586
    0.626   0.382   0.566   0.435  -0.362   0.668  -0.590  -0.271  -0.356  -0.493

    0.950  -0.471
    0.001  -0.376   0.199   0.887   0.060   0.839   1.392  -0.265   0.438  -0.167
    0.448  -0.854   0.158   0.338   0.001  -0.014   0.958   0.558   0.414   0.048
    0.608   0.330   0.353   1.056  -0.270   0.783   0.221   0.118   0.199  -0.030
    0.560  -0.601   0.407   0.111  -0.164  -0.183   0.394   0.760  -0.134   0.812
   -0.326   0.092  -0.523  -0.204   0.958  -0.662  -0.126   0.353   0.632  -0.110
    0.583  -0.853   0.072   0.006   0.195  -0.149   0.075  -0.314  -0.587  -0.023
   -1.278  -0.156   0.328  -0.614  -0.684  -0.467   0.014   0.569  -0.173  -0.151
   -0.697  -0.694  -0.404  -0.773   0.477   0.236  -0.342   0.014  -0.781   0.856
   -1.183  -0.635   0.578  -0.277   0.701  -0.818  -0.320   0.233   0.099  -0.499
    0.485   0.204   0.617   0.466  -0.380   0.645  -0.418  -0.330  -0.253  -0.343

    1.000  -0.283
   -0.060  -0.532   0.342   0.779   0.153   0.977   1.364  -0.371   0.161  -0.196
    0.749  -0.774   0.125   0.235  -0.039   0.069   0.925   0.486   0.422  -0.069
    0.728   0.228   0.442   1.038  -0.519   0.740   0.150   0.270   0.212  -0.197
    0.569  -0.733   0.390   0.085  -0.217  -0.051   0.479   0.667  -0.174   0.860
   -0.272   0.179  -0.489  -0.111   0.941  -0.638   0.221   0.390   0.502  -0.230
    0.439  -0.812   0.122  -0.060   0.199  -0.180   0.116  -0.240  -0.712  -0.183
   -0.902  -0.086  -0.011  -0.694  -0.603  -0.420   0.009   0.454  -0.198  -0.056
   -0.768  -0.431  -0.278  -0.831   0.391   0.167  -0.480  -0.116  -0.763   0.885
   -0.957  -0.609   0.393  -0.154   0.793  -0.741  -0.288   0.156   0.234  -0.574
    0.417   0.091   0.604   0.555  -0.553   0.676  -0.216  -0.330  -0.419  -0.601

    1.050  -0.498
    0.025  -0.804   0.383   1.104   0.143   1.013   1.364  -0.318   0.385  -0.069
    0.734  -0.788   0.129   0.164   0.072  -0.039   0.889   0.341   0.575  -0.104
    0.668   0.206   0.499   1.101  -0.307   0.635  -0.023   0.067   0.244  -0.331
    0.601  -0.714   0.493   0.000  -0.331  -0.113   0.315   0.581  -0.017   0.880
   -0.325   0.513  -0.630   0.008   0.866  -0.436   0.049   0.122   0.391  -0.427
    0.733  -1.040  -0.026   0.009   0.241  -0.260   0.153  -0.153  -0.683  -0.392
   -0.817  -0.175  -0.122  -0.651  -0.774  -0.580   0.194   0.430  -0.140  -0.003
   -0.908  -0.320  -0.063  -0.882   0.196   0.302  -0.357  -0.185  -0.768   0.632
   -1.065  -0.628   0.448   0.267   0.803  -0.772  -0.392   0.174   0.476  -0.876
    0.310  -0.028   0.709   0.451  -0.455   0.729  -0.377  -0.301  -0.411  -0.697

    1.100  -0.449
    0.062  -0.804   0.371   0.884   0.217   0.809   1.361  -0.363   0.517   0.027
    0.403  -0.693   0.173   0.114   0.322   0.114   0.819   0.267   0.620  -0.174
    0.627   0.036   0.449   1.164  -0.131   0.575   0.060  -0.181   0.144  -0.325
    0.431  -0.618   0.326  -0.135  -0.500  -0.063   0.203   0.467  -0.042   0.701
   -0.472   0.602  -0.602   0.049   0.945  -0.346   0.151   0.265   0.531  -0.361
    0.835  -1.113   0.195   0.078   0.185  -0.190   0.230  -0.198  -0.702  -0.505
   -0.569  -0.046   0.242  -0.842  -0.870  -0.451   0.253   0.570   0.055  -0.162
   -0.718  -0.192   0.196  -0.775   0.040   0.421  -0.407  -0.111  -1.039   0.471
   -0.983  -0.612   0.451   0.140   0.741  -0.792  -0.339   0.080   0.388  -0.864
    0.256  -0.158   0.574   0.457  -0.419   0.889  -0.213  -0.439  -0.146  -0.585

    1.150  -0.445
   -0.108  -0.969   0.379   0.922   0.268   0.839   1.204  -0.424   0.351   0.013
    0.441  -0.660   0.132   0.190   0.298   0.282   0.866   0.281   0.650  -0.015
    0.607   0.004   0.267   1.076  -0.051   0.559   0.015  -0.262   0.185  -0.313
    0.305  -0.627   0.400  -0.208  -0.806  -0.049   0.273   0.457  -0.130   0.730
   -0.526   1.026  -0.668   0.144   1.163  -0.324   0.096   0.197   0.427  -0.410
    0.765  -0.919   0.300   0.022   0.343  -0.236   0.218  -0.078  -0.669  -0.544
   -0.509   0.217   0.118  -0.989  -0.643  -0.569   0.097   0.546  -0.017  -0.258
   -0.251  -0.021   0.074  -0.707   0.002   0.246  -0.811   0.048  -1.001   0.377
   -0.812  -0.607   0.338   0.160   0.601  -0.657  -0.366   0.147   0.211  -0.890
    0.293  -0.269   0.784   0.436  -0.430   0.818  -0.089  -0.677  -0.424  -0.701

    1.200  -0.431
   -0.240  -0.757   0.080   0.829   0.288   0.621   1.416  -0.201   0.286   0.156
    0.320  -0.714   0.361   0.239   0.165   0.264   0.700   0.379   0.552  -0.166
    0.681  -0.075   0.503   0.957  -0.032   0.697   0.041  -0.249   0.401  -0.337
    0.235  -0.578   0.333  -0.083  -0.800  -0.185   0.338   0.733  -0.164   0.752
   -0.752   0.782  -0.586  -0.021   1.187  -0.333   0.348   0.065   0.269  -0.442
    0.564  -0.618   0.295   0.019   0.456  -0.396   0.137  -0.159  -0.743  -0.688
   -0.471   0.398   0.088  -0.874  -0.631  -0.513   0.286   0.500  -0.029   0.012
   -0.349   0.130   0.123  -0.689   0.082   0.119  -0.768   0.137  -0.977   0.294
   -1.018  -0.634   0.447   0.318   0.673  -0.678  -0.530   0.354   0.259  -0.869
    0.391  -0.375   1.050   0.331  -0.588   0.484  -0.368  -0.355  -0.471  -0.775

    1.250  -0.652
    0.031  -0.356   0.095   0.922   0.161   0.687   1.513  -0.164   0.233   0.085
    0.515  -0.673   0.526   0.466   0.031   0.171   0.711   0.551   0.416  -0.280
    0.923  -0.157   0.809   0.638  -0.033   0.692   0.035  -0.038   0.408  -0.466
    0.332  -0.739   0.360   0.078  -0.619  -0.094   0.370   0.702  -0.288   0.800
   -0.778   0.960  -0.560  -0.027   0.980  -0.430   0.475   0.231   0.440  -0.596
    0.266  -0.553   0.028  -0.013   0.609  -0.249   0.194  -0.278  -0.836  -0.385
   -0.814   0.170  -0.043  -0.806  -0.496  -0.626   0.377   0.407  -0.235  -0.023
   -0.432   0.000   0.049  -0.545   0.322   0.141  -0.807   0.135  -0.906   0.437
   -0.885  -0.620   0.308   0.206   0.726  -0.797  -0.567   0.169   0.163  -0.743
    0.496  -0.610   0.929   0.301  -0.740   0.430  -0.540  -0.441  -0.487  -0.645

    1.300  -0.669
   -0.042  -0.327   0.215   1.081   0.093   0.740   1.514  -0.263   0.287  -0.017
    0.628  -0.763   0.614   0.296  -0.113   0.511   0.641   0.591   0.476  -0.236
    0.933  -0.290   0.541   0.579  -0.108   0.388   0.149  -0.054   0.226  -0.290
    0.210  -0.483   0.413   0.222  -0.506   0.041   0.195   0.584  -0.274   0.887
   -0.618   1.011  -0.709   0.002   0.790  -0.540   0.494   0.335   0.255  -0.332
    0.651  -0.541  -0.006   0.044   0.586  -0.365   0.309  -0.073  -0.865  -0.231
   -0.703   0.048  -0.246  -0.766  -0.453  -0.479   0.306   0.428  -0.478   0.197
   -0.431  -0.081   0.091  -0.488   0.427   0.131  -0.821   0.236  -0.768   0.225
   -0.964  -0.713   0.351   0.057   0.673  -0.783  -0.741   0.159   0.080  -0.648
    0.381  -0.527   0.939   0.350  -0.738   0.510  -0.306  -0.670  -0.455  -0.511

    1.350  -0.769
   -0.167  -0.221   0.117   1.087   0.146   0.792   1.296  -0.435   0.203  -0.157
    0.667  -0.652   0.523   0.363  -0.058   0.543   0.388   0.714   0.385  -0.201
    1.000  -0.155   0.556   0.587  -0.006   0.327   0.018  -0.084   0.419  -0.325
   -0.157  -0.428   0.330   0.025  -0.423  -0.153   0.068   0.347  -0.295   1.057
   -0.574   0.896  -0.961  -0.119   1.052  -0.356   0.396   0.144   0.150  -0.367
    0.595  -0.474   0.108   0.151   0.505  -0.511   0.346  -0.140  -0.862  -0.468
   -0.830   0.263  -0.244  -0.898  -0.593  -0.515   0.302   0.343  -0.337   0.128
   -0.303  -0.220  -0.072  -0.533   0.176   0.042  -0.680   0.011  -0.476   0.389
   -1.196  -0.757   0.435   0.192   0.733  -0.812  -0.774   0.065   0.022  -0.711
    0.484  -0.415   0.693   0.535  -0.661   0.487  -0.292  -0.674  -0.312  -0.405

    1.400  -0.681
    0.040  -0.260   0.307   1.083  -0.114   0.539   1.249  -0.342   0.209  -0.147
    0.710  -0.586   0.628   0.488   0.031   0.353   0.440   0.612   0.338  -0.153
    0.774  -0.170   0.436   0.659   0.133   0.470  -0.069  -0.061   0.768  -0.395
   -0.132  -0.417   0.352  -0.102  -0.154  -0.068   0.174   0.510  -0.077   0.777
   -0.754   0.908  -0.985  -0.342   1.196  -0.459   0.899  -0.007   0.135  -0.330
    0.479  -0.579  -0.008   0.154   0.524  -0.370   0.165  -0.098  -0.725  -0.534
   -0.525   0.194  -0.288  -0.746  -0.524  -0.321   0.341   0.527  -0.165   0.057
   -0.357  -0.306  -0.196  -0.452   0.304  -0.038  -0.693  -0.003  -0.294   0.462
   -1.005  -0.658   0.481   0.157   0.577  -0.784  -0.915   0.110   0.113  -0.867
    0.573  -0.268   0.826   0.664  -0.845   0.724  -0.147  -0.572  -0.133  -0.354

    1.450  -0.713
   -0.053  -0.135   0.408   0.930  -0.088   0.692   1.108  -0.101   0.168  -0.054
    0.581  -0.393   0.593   0.445   0.070   0.476   0.375   0.666   0.409  -0.125
    0.670  -0.331   0.251   0.857   0.081   0.402  -0.063   0.325   0.589  -0.139
    0.008  -0.195   0.148  -0.065   0.037   0.010   0.144   0.646   0.013   0.805
   -0.615   0.774  -0.890  -0.172   1.339  -0.551   0.970  -0.108   0.195  -0.287
    0.717  -0.616   0.180   0.015   0.548  -0.164   0.143  -0.137  -0.557  -0.435
   -0.826   0.108  -0.541  -0.852  -0.575  -0.340   0.556   0.525  -0.207  -0.114
   -0.283  -0.305  -0.279  -0.532   0.309   0.063  -0.686  -0.026  -0.100   0.363
   -0.995  -0.536   0.592   0.040   0.604  -0.795  -1.023   0.332   0.057  -0.690
    0.490  -0.438   1.041   0.743  -0.525   0.690  -0.107  -0.345  -0.227  -0.545

    1.500  -0.532
    0.149   0.136   0.458   0.661  -0.205   0.781   1.056  -0.105   0.173   0.163
    0.464  -0.338   0.538   0.520   0.078   0.611   0.708   0.308   0.575  -0.165
    0.727  -0.341   0.284   0.700   0.063   0.374   0.109   0.292   0.516  -0.233
   -0.157  -0.512   0.042   0.022  -0.240  -0.107   0.045   0.628   0.006   0.728
   -0.537   0.736  -0.820   0.080   1.181  -0.457   0.868  -0.150   0.307  -0.155
    0.625  -0.722   0.146  -0.051   0.546  -0.251  -0.111   0.102  -0.577  -0.360
   -0.782   0.211  -0.520  -0.922  -0.734  -0.243   0.478   0.442   0.042  -0.086
   -0.491  -0.396  -0.521  -0.497   0.052   0.052  -0.576  -0.001  -0.187   0.442
   -1.025  -0.249   0.812  -0.153   0.447  -0.682  -1.168   0.436  -0.122  -0.763
    0.357  -0.611   0.976   0.641  -0.494   0.493  -0.382  -0.051  -0.230  -0.580

    1.550  -0.431
    0.230  -0.046   0.374   0.742  -0.263   0.569   1.214  -0.050   0.248   0.135
    0.418  -0.289   0.468   0.469  -0.062   0.492   0.769   0.285   0.665  -0.125
    0.759  -0.354   0.241   0.678  -0.094   0.326  -0.050   0.189   0.338  -0.318
    0.100  -0.452  -0.055  -0.023  -0.146  -0.040  -0.206   0.992  -0.085   0.757
   -0.440   0.604  -1.007   0.186   1.126  -0.426   0.731  -0.021   0.575  -0.325
    0.680  -1.045   0.109   0.243   0.360  -0.354   0.160  -0.076  -0.606  -0.290
   -0.787   0.296  -0.501  -0.824  -0.607  -0.291   0.379   0.469   0.269   0.049
   -0.777  -0.292  -0.592  -0.579  -0.043   0.236  -0.476  -0.297  -0.317   0.296
   -0.860  -0.218   0.725  -0.212   0.547  -0.580  -1.267   0.582  -0.167  -0.824
    0.384  -0.570   1.100   0.381  -0.576   0.437  -0.437   0.197  -0.098  -0.519

    1.600  -0.446
    0.359  -0.121   0.374   0.875  -0.201   0.614   1.104  -0.037   0.330   0.282
    0.400  -0.379   0.411   0.323   0.047   0.619   0.720   0.265   0.765  -0.154
    0.793  -0.468   0.073   0.657  -0.013   0.445   0.215   0.156   0.222  -0.224
    0.008  -0.311  -0.086   0.057  -0.110   0.021  -0.097   1.151   0.158   0.890
   -0.517   0.422  -0.929   0.427   1.055  -0.750   0.584  -0.273   0.517  -0.288
    0.479  -1.157   0.054   0.238   0.285  -0.330   0.239   0.000  -0.307  -0.461
   -0.802   0.259  -0.415  -0.929  -0.864  -0.459   0.245   0.617   0.397  -0.038
   -0.778  -0.233  -0.386  -0.561  -0.053   0.096  -0.493  -0.209  -0.383   0.395
   -0.892  -0.099   0.502  -0.231   0.719  -0.488  -1.174   0.648  -0.032  -1.068
    0.507  -0.600   1.020   0.451  -0.529   0.500  -0.456   0.316  -0.055  -0.528

    1.650  -0.497
    0.461  -0.187   0.431   0.548  -0.246   0.585   0.873   0.068   0.346   0.273
    0.447  -0.389   0.166   0.497   0.253   0.686   0.662   0.141   0.887  -0.251
    0.532  -0.528  -0.099   0.663   0.153   0.351   0.097   0.090   0.283  -0.091
    0.146  -0.294  -0.120   0.064  -0.014  -0.054  -0.089   1.162   0.214   0.689
   -0.622   0.387  -0.873   0.524   1.003  -0.691   0.374  -0.330   0.478  -0.198
    0.476  -1.234   0.115   0.176   0.528   0.067   0.240  -0.080  -0.347  -0.397
   -0.633   0.146  -0.367  -0.856  -1.007  -0.648   0.177   0.559   0.432   0.053
   -0.770   0.020  -0.169  -0.608  -0.034   0.400  -0.465  -0.169  -0.426   0.673
   -0.697  -0.058   0.463  -0.163   0.874  -0.370  -0.767   0.595  -0.207  -1.214
    0.472  -0.711   0.750   0.447  -0.598   0.396  -0.273   0.293  -0.113  -0.409

    1.700  -0.450
    0.576  -0.111   0.241   0.345  -0.278   0.585   0.947   0.143   0.152   0.501
    0.424  -0.188  -0.073   0.591   0.141   0.559   0.382   0.319   0.643  -0.294
    0.693  -0.582  -0.328   0.983   0.121   0.471   0.196   0.290   0.153  -0.105
    0.373  -0.325  -0.085   0.047   0.167  -0.171  -0.148   0.978   0.206   0.693
   -0.541   0.414  -0.786   0.544   0.764  -0.666   0.399  -0.295   0.568  -0.421
    0.689  -1.008   0.385   0.211   0.536  -0.011   0.462   0.038  -0.635  -0.499
   -0.726   0.104  -0.202  -1.045  -1.060  -0.607   0.312   0.583   0.377   0.129
   -0.644  -0.249  -0.038  -0.602  -0.164   0.526  -0.603  -0.207  -0.507   0.488
   -0.706  -0.179   0.427  -0.043   0.688  -0.410  -0.763   0.666  -0.007  -1.092
    0.615  -0.674   0.722   0.346  -0.610   0.194  -0.260  -0.026  -0.027  -0.651

    1.750  -0.404
    0.543   0.036   0.283   0.277  -0.272   0.544   0.966   0.205   0.093   0.632