
This full-field turbulence file was generated by TurbSim (v1.40, 12-Sep-2008) on 21-May-2021 at 12:51:29.

 | w-comp |  Y  x  Z  | Grid Resolution (Y x Z) | Time-step | Hub Elev | Mean U |
            10    10     15.556     15.556          0.050      80.00     13.00

 Z Coordinates (m):
  -70.000 -54.444 -38.889 -23.333  -7.778   7.778  23.333  38.889  54.444  70.000

 Y Coordinates (m):
  -70.000 -54.444 -38.889 -23.333  -7.778   7.778  23.333  38.889  54.444  70.000

    0.000  -1.280
    0.124  -0.854   1.213   0.543   0.361  -0.510  -0.655   1.843   0.358   0.992
   -0.370   0.863   4.338  -0.498  -0.796   1.867  -1.047  -0.820   0.495   0.265
    1.712  -0.797   0.250  -0.536  -0.777  -0.750   1.591   0.203   0.379   0.360
   -1.232  -0.127   0.052   1.729   1.695   0.563   0.228  -2.589   0.697  -1.528
    1.479  -1.064  -0.260  -0.786   0.108   1.370  -1.262  -0.432  -0.570  -0.932
   -0.166   2.041  -1.468  -0.259   2.024  -0.044   0.133   1.504  -0.545  -0.161
   -1.650   0.334   0.867   0.534  -0.883  -0.606   1.232  -0.217   0.023  -0.032
    0.253   1.551   0.944   1.664   1.561   0.813   1.379   0.255  -0.378  -0.431
    1.181  -0.718   0.134   1.538  -0.795  -0.328  -0.231   1.139   0.974  -0.337
   -1.234  -1.008   1.148  -1.782  -0.608   0.151  -0.065   0.676  -0.576   0.086

    0.050  -1.868
   -0.178  -0.869   0.949  -0.246   0.518  -0.440  -0.727   2.081   0.231   0.794
   -1.259   0.010   4.249  -0.779  -0.469   1.513  -1.353  -0.538   0.492   0.128
    1.455  -0.386  -0.102  -0.217  -0.475  -1.103   0.674   0.162   0.242   0.267
   -0.759  -0.124  -0.181   1.275   2.165   0.931   0.261  -1.977   0.929  -1.326
    1.107   0.075  -0.912   0.115  -0.149   2.368  -1.632  -0.428  -0.913  -0.844
    0.271   2.222  -1.401   0.102   2.214   0.205   0.626   1.577  -0.737  -0.440
   -1.950   1.244   0.845  -0.004  -1.213  -0.577   1.662  -0.548  -0.553   0.071
    0.148   1.532   1.251   1.734   1.458   1.224   1.377   0.230  -0.420  -0.535
    1.164  -1.539  -0.425   1.157  -0.585  -0.463  -1.034   1.231   0.928  -0.801
   -1.112  -0.821   0.472  -1.333  -0.459  -0.054  -0.540   0.897  -0.086   0.484

    0.100  -2.003
    0.212  -0.341   0.361  -0.583   0.412  -0.277  -0.961   1.110  -0.162   0.258
   -1.732  -0.136   4.179  -0.376  -0.523   1.711  -0.791  -0.841   0.596   0.216
    1.999  -0.737  -0.303  -0.167   0.044  -0.707   0.771   0.186  -0.533   0.426
   -0.728  -0.331  -0.038   1.156   2.427   1.005   0.147  -2.137   0.927  -1.642
    0.513   0.019  -0.584  -0.606   0.122   2.908  -1.486  -0.388  -0.538  -0.578
    1.204   2.119  -0.869   0.805   2.407   0.586   0.828   1.204  -0.820  -0.230
   -1.479   1.374   1.004   0.198  -1.536  -0.284   1.762  -0.785  -0.614   0.386
   -0.496   2.052   1.390   1.547   1.440   0.825   0.766  -0.004  -0.252  -0.157
    0.243  -1.298  -0.229  -0.124  -0.243  -0.216  -0.907   0.991   1.468   0.578
   -1.205  -0.326   1.144  -0.878  -0.127  -0.767  -0.569   0.993   0.198   0.963

    0.150  -1.659
    0.086  -0.365  -0.056  -0.940  -0.092  -0.987  -1.474   0.885  -0.171  -0.132
   -1.635   0.241   4.227   0.132  -0.491   1.625  -0.603  -0.446   0.834   0.427
    1.810  -0.653   0.248  -0.367  -0.118   0.302   1.162  -0.327  -1.485   0.089
   -1.177   0.462  -0.198   1.901   2.985   0.592   0.241  -1.884   1.145  -1.198
    0.892  -0.436  -0.097  -0.979  -0.141   2.502  -1.672   0.365  -0.459  -0.117
    1.372   2.873  -1.113   0.185   1.893   0.313   1.343   1.199  -0.858  -0.115
   -0.952   1.176   1.151   0.448  -1.373  -0.168   2.214  -0.332  -0.215   0.735
   -0.246   1.853   0.796   1.641   1.110   0.983   0.395   0.684  -0.824   0.184
    0.744  -1.362  -0.320  -0.734  -0.915   0.660  -1.121   1.331   2.093   0.795
   -0.933  -1.021   0.722  -0.586  -1.156  -0.213  -0.570   0.611   0.898   0.851

    0.200  -1.180
   -0.769  -0.678  -0.005  -0.693   0.210  -0.136  -1.730   0.574  -0.379   0.070
   -1.307   0.276   4.527   0.278  -0.892   1.829  -1.107  -0.363   0.350   0.368
    1.316  -0.480  -0.032  -0.344   0.169  -0.529   1.054  -0.066  -1.745  -0.028
   -0.941   0.744  -0.370   2.179   3.874   0.137  -0.065  -1.677   1.340  -1.066
    0.821  -0.657   0.054  -1.120  -0.392   2.906  -2.054   0.357  -0.554  -0.468
    0.989   2.869  -0.257  -0.472   1.691  -0.133   1.652   1.439  -0.611  -0.748
   -0.858   1.110   0.866   0.382  -1.206  -0.021   2.360  -0.122   0.099   0.913
    0.330   1.198   0.482   1.376   1.258   0.828   0.374   1.095  -0.734  -0.031
    1.537  -1.180  -0.098  -0.627  -0.867   0.432  -0.813   1.300   1.975   0.790
   -0.416  -0.764   0.486  -0.230  -1.262   0.059  -1.359   0.395   0.455   0.758

    0.250  -0.879
   -0.611  -0.274  -0.109  -1.126   0.034   0.265  -1.586   1.034  -0.105  -0.216
   -1.447   0.185   4.623   0.160  -1.760   2.005  -1.690  -0.276  -0.032   0.939
    1.751  -0.574   0.410  -0.449   0.070  -0.640   0.832   0.347  -1.488  -0.191
   -0.047   0.893  -0.609   2.013   4.194   0.235   0.464  -1.173   1.060  -1.306
    0.342  -0.969  -0.013  -1.355  -0.683   2.393  -2.358   0.484  -0.552  -0.128
    1.329   2.213  -1.024  -0.624   1.320  -0.478   1.214   0.822  -0.424  -0.529
   -0.681   0.788   1.283   1.185  -0.676   0.226   2.189   0.021  -0.199   0.288
    0.820   1.073   0.056   1.487   1.308   1.240   0.327   0.407  -0.752  -0.141
    1.369  -1.863  -0.401  -0.668  -0.959  -0.362  -1.104   1.585   1.668   0.818
   -0.148  -0.936   0.335  -0.214  -1.270   0.388  -1.130  -0.297  -0.255   0.423

    0.300  -2.211
   -0.146  -0.248  -0.304  -0.921   0.427   0.271  -1.790   1.122  -0.206   0.782
   -1.585   0.017   4.440  -0.798  -1.732   1.798  -2.072  -1.155   0.030   0.867
    1.857  -1.033  -0.352  -0.166  -0.041  -0.494   1.414  -0.293  -1.773   0.372
   -0.207   0.930  -0.157   1.729   4.030   0.328   0.431  -0.940   0.645  -1.203
    0.242  -0.652  -0.456  -1.632  -0.370   1.953  -2.057   0.590  -0.446   0.353
    1.351   2.203  -0.827  -0.800   1.355  -0.209   1.403   0.665  -0.691  -0.666
   -0.695   0.410   1.582   1.606  -0.421   0.100   3.529  -0.040  -0.091  -0.021
    1.198   0.917   0.002   1.081   1.085   0.508   0.174  -0.111  -0.994   0.274
    1.271  -1.692  -0.123  -0.766  -1.073  -0.498  -0.716   2.012   1.516   0.821
    0.245  -1.159   0.335  -1.109  -1.380   0.092  -1.179   0.336   0.370   0.622

    0.350  -1.709
   -0.059  -0.831  -0.776  -1.008   0.679   0.540  -1.673   0.893  -0.431   0.488
   -1.129   0.813   3.539  -0.663  -1.212   1.548  -1.861  -0.802  -0.465  -0.139
    1.911  -1.439  -0.634  -0.327  -0.280  -0.226   2.114  -0.171  -2.038   0.301
   -0.663   0.363   0.129   1.985   3.765   0.251   0.584  -0.942   0.359  -1.391
    0.480  -1.211  -0.931  -1.818  -0.275   1.655  -1.873   0.173  -0.811  -0.208
    1.208   1.961  -0.492  -0.767   1.168   0.206   1.342   1.062  -0.776  -0.442
   -0.888   0.697   1.739   1.319  -0.280  -0.698   3.135  -0.220  -0.344   0.262
    0.998   0.958   0.506   1.164   0.220   0.031   0.502   0.021  -0.720   0.243
    0.763  -1.393  -0.078  -0.718  -1.121  -0.004  -0.666   1.599   1.113   1.338
    0.409  -1.002   0.627  -1.659  -1.269   0.045  -1.228   0.195   0.492   0.489

    0.400  -2.222
   -0.051  -0.645  -0.697  -1.472   0.326   0.672  -1.865   1.072  -0.024   0.131
   -0.979   0.381   3.003   0.069  -1.320   0.861  -0.711  -0.174  -0.865   0.343
    1.396  -0.955   0.037   0.099  -0.671  -0.472   1.654  -0.358  -1.252   0.062
   -0.525   0.886  -0.005   2.054   2.690  -0.375   0.263  -1.078   0.694  -1.849
    0.347  -1.205  -0.995  -0.938  -0.225   1.771  -2.036   0.106  -1.049   0.144
    1.505   1.232  -1.070  -0.685   0.427  -0.314   0.363   1.530  -0.561  -1.537
   -0.973   1.012   1.722   1.549  -0.883  -0.610   2.856  -0.426  -0.398   0.915
    0.735   1.128   0.673   0.925  -0.672   0.332   0.374  -0.508  -0.300   0.406
    1.143  -1.392  -0.050   0.054  -0.673  -0.243  -0.654   2.233   1.052   1.273
    0.801  -1.597   1.182  -1.484  -0.888  -0.176  -2.392   0.398   0.569  -0.096

    0.450  -3.093
    0.347  -0.317  -0.818  -1.935  -0.060   0.886  -1.548   0.979   0.269   0.788
   -1.113   0.098   2.642   0.257  -1.267   0.877  -0.718   0.192  -0.197   0.147
    1.364  -1.114   0.633   0.466  -0.109  -1.014   1.784  -0.663  -1.937   0.691
    0.105   0.592  -0.113   1.705   2.237   0.038   0.211  -0.785   0.897  -0.983
    0.011  -1.236  -1.741  -0.464  -0.356   1.776  -2.590   0.174  -0.521   0.133
    1.427   1.334  -0.173  -0.550   0.764  -0.660   0.452   1.697  -1.275  -1.745
   -0.736   1.279   1.794   2.207  -0.278  -0.585   2.469  -0.797  -0.673   0.689
    1.074   0.969   0.264   0.925  -0.477   0.256   0.039  -0.325  -0.488   0.475
    0.940  -1.441  -0.181  -0.369  -0.741  -0.144  -0.807   2.381   1.349   0.947
    0.736  -1.180   1.109  -1.800   0.080  -0.033  -2.083   0.239   0.756   0.628

    0.500  -3.044
    0.431  -0.677  -0.389  -1.542   0.668   0.243  -1.107   0.982   0.478   0.858
   -1.169   0.244   3.022   0.155  -1.063   0.765  -0.715   0.247  -0.219  -0.482
    1.641  -0.577   0.175   0.625   0.417  -0.389   1.313  -1.004  -1.916   0.738
   -0.594   0.808  -0.182   1.776   1.777  -0.693   0.495  -0.750   0.913  -0.768
    0.310  -1.343  -1.781  -0.482  -0.150   2.060  -2.262   0.306  -0.448   0.215
    0.722   0.727  -0.942  -0.500   1.039  -0.608   0.918   1.530  -0.957  -1.482
   -0.706   0.621   2.370   2.128  -0.292  -0.369   1.990  -0.898   0.031   0.623
    0.984   0.778  -0.084   0.467   0.083   0.552  -0.073   0.155  -1.127   0.135
    1.520  -1.083  -0.155  -0.531  -0.482  -0.635  -1.048   2.527   1.585  -0.062
   -0.083  -1.277   0.660  -1.591  -0.061  -0.365  -1.636   0.398   0.469   0.446

    0.550  -3.012
   -0.064  -0.871  -0.177  -0.936   0.243   0.578  -1.205   1.221   0.116   0.215
   -1.296  -0.266   3.128   0.356  -1.166  -0.139  -1.066   0.460  -0.295   0.114
    0.956  -0.669   0.572   0.986   0.402  -0.232   1.481  -1.118  -1.483   0.467
   -0.023  -0.426  -0.386   1.900   1.420  -1.050   0.883  -0.659   1.472  -0.088
   -0.240  -1.233  -1.858  -0.456   0.060   1.647  -2.010   0.057  -0.978   0.632
   -0.331   0.827  -0.885  -0.725   0.710  -0.590   1.140   1.829  -0.978  -1.040
   -0.840  -0.017   2.316   1.276  -0.941  -0.682   1.160  -0.229  -0.106   0.451
    1.556   1.022   0.514   0.156   0.127   1.100  -0.108   0.004  -1.364  -0.102
    0.927  -0.715  -0.177  -0.239   0.250  -0.543  -0.132   1.968   1.604  -0.281
   -1.092  -1.588   0.793  -1.718   0.421  -0.629  -1.150   0.365   0.390   0.108

    0.600  -3.890
    0.424  -0.987   0.898  -1.058   0.469   0.406  -0.912   0.932  -0.261   0.600
   -2.032   0.511   3.179   0.330  -1.134  -0.191  -0.964   0.812  -0.617   0.281
    0.955  -0.970   1.069   0.662   0.309  -0.510   1.874  -1.290  -1.096  -0.074
    0.210  -0.978  -0.874   1.613   1.181  -0.923   1.189  -0.810   1.088  -0.026
    0.311  -1.372  -1.905  -0.815   0.197   1.473  -2.164   0.486  -0.798   1.041
   -0.439   0.566  -1.005  -0.689   0.384  -0.938   1.050   1.400  -1.014  -1.016
   -1.489   0.915   2.150   1.662  -1.809  -0.818   1.453  -0.208  -0.681   0.356
    1.925   0.599   0.308   0.278   0.472   1.250   0.330  -0.159  -2.051   0.725
    0.366  -0.737  -0.533  -0.467   0.234  -0.532   0.501   2.459   1.669  -0.309
   -1.125  -1.235   0.121  -1.716   0.265  -0.515  -1.435   0.376   0.304   0.264

    0.650  -3.537
    0.656  -0.654   1.259  -1.650   1.064   0.633  -0.791   0.483  -0.607   0.435
   -1.633   0.545   2.992  -0.122  -1.798   0.063  -1.222   0.970  -0.698  -0.108
    1.251  -1.332   0.646   0.026   0.335  -0.531   1.625  -0.847  -1.550  -0.325
    0.259  -0.625  -0.699   1.843   1.447  -1.772   1.140  -0.830   0.754   0.514
    0.499  -0.623  -1.180  -1.208   0.598   2.207  -1.334   0.582  -0.630   0.740
   -0.630   0.722  -1.243  -1.327   0.623  -0.551   0.595   0.859  -1.197  -0.058
   -1.768   0.959   2.264   2.283  -1.216  -0.925   1.455  -0.406  -0.490   0.215
    1.331   0.462   0.391   0.659   0.000   1.246   0.481   0.079  -2.120   0.507
    0.008  -1.148  -1.347  -0.790  -0.183  -0.516   0.292   2.641   2.082  -0.087
   -0.392  -1.137   0.244  -0.371   0.435   0.152  -1.273   0.318   0.373  -0.196

    0.700  -3.099
    0.722  -0.451   1.341  -1.496   0.031   0.850  -0.895   0.682  -1.310   1.140
   -0.953   0.020   3.220  -0.020  -2.123  -0.207  -1.565   1.388  -0.318  -0.108
    1.667  -1.434   0.065  -0.124   0.354  -0.106   0.834  -0.416  -1.308  -0.791
    0.366  -0.298  -1.217   2.121   1.913  -1.485   1.272  -1.785   1.168   0.283
   -0.088  -0.759  -0.601  -1.375   0.266   2.444  -0.986   0.455  -0.688   0.477
   -0.762   1.489  -1.744  -1.914   0.594   0.448   0.588   1.174  -0.823  -0.339
   -0.995   0.839   1.600   1.280  -0.749  -0.123   1.739   0.082   0.374   0.317
    1.551   0.495   0.163   0.193  -0.585   1.134   0.418   0.181  -1.768   0.469
   -0.061  -1.301  -1.091   0.152  -0.127   0.056   0.115   2.866   1.998  -0.278
   -1.243  -1.012   0.335  -0.295   0.551  -0.282  -0.522   0.049   0.130   0.061

    0.750  -3.150
    0.625   0.251   1.493  -1.356   0.024   0.761  -0.387   0.263  -0.384   0.896
   -0.961   0.767   3.132   0.386  -2.191   0.138  -1.294   1.459   0.533  -0.311
    1.862  -0.805  -0.875  -0.056   0.230  -0.441   1.763  -0.129  -0.821  -1.277
    0.209   0.096  -0.897   1.290   1.906  -1.573   1.643  -1.496   1.322   0.494
   -0.149  -0.764  -0.602  -1.064   0.515   2.578  -1.352  -0.111  -1.588   1.142
   -0.989   0.662  -1.424  -1.452   0.299  -0.378   1.062   1.172  -0.253  -0.400
   -0.551   1.244   1.694   1.487  -0.534  -0.207   1.600  -0.301   0.167  -0.184
    1.338   0.117   0.006   0.254   0.149   1.220  -0.292  -0.400  -2.331  -0.243
    0.988  -1.678  -0.562   0.300  -0.598  -0.067  -0.102   2.606   2.528  -0.855
   -2.204  -0.901   0.017  -0.488   0.639   0.218  -0.559   0.119   0.801   0.401

    0.800  -4.202
    0.066  -0.111   0.805  -1.227  -0.339   0.608  -0.466   0.221  -0.114   0.768
   -1.093   1.004   3.537   0.362  -1.962   0.115  -1.506   1.248   0.217  -0.205
    2.285  -1.099  -0.462   0.046   0.758   0.137   1.885  -0.238  -0.519  -0.953
   -0.269  -0.805  -0.881   0.789   1.534  -1.308   1.122  -1.509   1.261   0.494
   -0.201  -0.938   0.090  -1.106   0.863   2.574  -1.271  -0.652  -1.119   1.803
   -0.972   0.970  -1.246  -0.743  -0.020   0.455   0.779   0.986  -0.969  -0.630
    0.219   1.623   1.758   1.964  -0.337  -0.878   1.325  -0.454   0.122  -0.787
    1.675   0.013   0.248   0.002   0.001   0.634  -0.150  -0.383  -2.466  -0.348
    0.442  -1.689  -0.839  -0.039   0.177   0.387   0.125   2.657   2.338  -0.890
   -1.219  -0.481   0.370   0.019   1.093  -0.019  -0.469  -0.314   1.007   0.807

    0.850  -3.787
    0.024   0.371   1.304  -1.125  -0.348   0.420  -0.698   0.113  -0.435   0.914
   -0.996   0.952   3.700   0.069  -2.003  -0.547  -1.362   1.068   0.220  -0.245
    1.640  -0.614  -1.744   0.030   1.140   0.350   1.373   0.122  -0.718  -0.239
   -0.816  -0.975  -0.414   0.767   2.021  -1.410   1.218  -1.492   0.626  -0.388
    0.594  -1.087   0.070  -1.080   1.060   2.435  -1.047  -0.441  -1.126   2.156
   -0.974   1.247  -0.903  -0.757   0.894  -0.444  -0.220   0.740  -1.145  -1.595
   -0.349   1.487   1.939   1.600  -0.668  -0.634   1.513  -0.630   0.433  -0.601
    1.679   0.286   0.998   0.430   0.215   0.894  -0.221  -0.394  -1.883  -0.397
   -0.189  -1.384  -0.953  -0.567  -0.202   0.342  -0.606   2.231   2.634  -0.565
   -0.992  -0.603   0.829   0.022   0.637  -0.265  -1.070   0.404   1.197   0.676

    0.900  -3.029
    0.440  -0.045   0.974  -1.008   0.419   0.711  -0.216   0.209   0.068   1.268
   -0.729   1.554   3.845   0.388  -1.664  -0.553  -1.511   0.826   0.117   0.262
    1.325  -0.191  -1.213  -0.301   0.433   0.459   1.478   0.723  -0.772  -0.101
   -1.165  -0.619   0.144   0.619   2.200  -0.890   1.658  -1.384   0.792   0.330
    1.009  -1.077   0.065  -0.878   1.000   2.021  -1.512  -0.347  -1.014   1.695
   -1.009   1.242  -0.343  -0.193   1.235  -0.542  -0.028   0.712  -1.040  -1.135
    0.113   1.044   1.708   1.348  -0.729  -0.197   1.798  -1.020   0.530  -0.341
    1.518   0.208   0.602   0.564   0.302   1.567  -0.264  -0.610  -2.226  -0.058
   -1.028  -1.164  -1.323  -0.920   0.178  -0.068  -0.756   1.815   1.924   0.005
   -1.244  -0.449   0.902   0.134   0.379   0.548  -1.170   0.683   0.630   0.417

    0.950  -3.327
    0.891  -0.539   1.191  -0.733   0.399   0.726  -0.012  -0.378   0.007   1.002
    0.036   0.933   2.755   0.107  -1.069  -0.729  -1.381   0.735  -0.100   0.715
    0.983   0.023  -0.173   0.238   0.513   0.183   0.802   1.018  -1.168   0.340
   -0.488  -0.518  -0.378   0.355   1.464   0.200   1.789  -2.119   1.537   1.589
    0.944  -1.059  -0.057  -1.114   1.302   2.902  -0.983   0.042  -1.932   2.041
   -0.301   0.935  -0.551   0.599   0.315  -0.236  -0.183   0.697  -1.039  -1.600
   -0.497   1.305   1.579   1.177  -0.424  -0.163   1.753  -1.749   0.302  -0.689
    1.422  -0.132   0.482   0.635   0.042   1.631  -0.509  -1.151  -2.101   0.184
   -0.836  -0.870  -1.547  -1.470   0.330  -0.294  -1.116   1.939   2.049  -0.069
   -1.180  -1.019   0.688  -0.325   0.186   0.166  -1.546   0.435   0.293   0.116

    1.000  -2.719
    0.955   0.148   1.453  -0.997   1.601   0.730  -0.381   0.114  -0.234   1.358
   -0.447   0.255   2.840  -0.290  -1.033  -0.544  -1.026   1.170  -0.229   1.162
    1.902   0.337  -0.058   0.684   1.057   0.005   0.517   0.968  -0.840   0.101
   -0.078  -0.681  -0.311   0.451   1.595   0.524   1.842  -2.565   1.755   1.587
    0.235  -1.001   0.584  -0.786   1.712   2.709  -0.874   0.762  -2.895   2.194
   -0.011   0.966  -0.148   1.076  -0.061   0.249  -0.871   0.750  -0.912  -2.277
   -0.966   1.435   1.293   1.017  -0.203  -0.525   1.879  -1.499   0.555  -1.036
    1.512   0.099   0.702   0.513   0.158   1.577  -0.390  -1.295  -1.609  -0.408
   -0.917  -1.214  -1.500  -1.170   0.503   0.482  -1.025   1.399   1.900  -0.577
   -0.806  -0.280   1.191   0.763  -0.064  -0.207  -1.361  -0.194   0.052   0.105

    1.050  -3.186
    0.458  -0.085   2.579  -1.055   0.717   0.467  -0.342  -0.393  -0.019   0.660
   -0.761   0.159   3.583  -0.029  -1.369  -0.662  -1.088   0.559   0.077   1.258
    1.232   0.999   0.003   0.581   1.124  -0.415   0.077   0.642  -1.216   0.323
    0.134  -0.937   0.376  -0.006   1.059   0.058   1.484  -2.696   1.554   1.668
   -0.176  -0.484   0.715  -0.558   1.365   2.635  -0.834   0.290  -3.098   2.499
   -0.915   1.359  -0.017   1.121  -0.027  -0.232  -0.369   0.807  -1.109  -2.118
   -1.001   1.624   1.088   1.633  -0.588  -0.034   2.296  -0.972   0.804  -1.412
    2.121  -0.600   1.466   0.846   0.609   1.709   0.072  -1.419  -0.698  -0.289
   -0.709  -0.961  -1.387  -1.139  -0.345   0.828  -0.713   1.172   2.134  -0.454
   -1.080   0.001   0.393   0.832  -0.271  -0.671  -1.919  -0.525  -0.361   0.407

    1.100  -3.433
   -0.293  -0.124   2.508  -0.695   1.268   1.005  -0.468  -0.182   0.140   1.520
   -0.832   1.375   3.628  -0.570  -1.425  -1.109  -0.598   0.724  -0.320   1.900
    0.485   1.000   0.094   0.382   1.461  -0.649   0.741   0.659  -0.818   0.978
    0.384  -1.371  -0.152  -0.315   0.751   0.145   1.845  -3.024   1.389   1.995
   -0.551  -0.774   0.673  -0.308   1.505   2.063  -0.484   0.754  -3.004   2.022
   -0.776   0.579   0.432   0.879   0.255  -0.293  -1.104   0.833  -1.275  -1.642
   -0.802   1.797   1.189   1.291  -0.338   0.657   1.662  -1.047   1.090  -1.072
    1.692  -0.145   1.407   1.045   0.616   1.704   0.017  -1.235  -1.137  -0.183
   -1.079  -1.549  -1.542  -0.708  -0.299   0.831  -0.723   1.251   1.954  -0.604
   -1.477   0.005   0.208   0.667  -0.906  -0.774  -2.158  -0.371  -0.340   0.720

    1.150  -4.523
    0.014  -0.352   2.533   0.068   1.353   1.440  -0.228  -0.118   0.431   1.667
   -1.508   0.642   3.464  -0.340  -0.640  -0.991  -0.548   1.227  -0.598   1.735
    0.961   1.313   0.859   0.028   0.852  -0.428   1.085   0.260  -0.805   0.714
    0.944  -1.281   0.309  -0.402   0.996   0.460   1.367  -2.614   0.869   1.454
   -0.763  -1.109   0.681  -0.065   1.921   2.217  -0.718   0.900  -3.002   2.263
   -0.674   1.070   0.210   0.124   0.136  -0.634  -0.667   1.243  -1.303  -1.551
   -0.333   1.693   2.212   1.210  -0.428   0.181   1.821  -1.576   1.456  -0.887
    1.144  -0.003   1.086   1.065   0.963   1.545   0.658  -0.631  -1.992  -0.322
   -1.082  -1.664  -1.806  -0.707  -0.342   0.779   0.269   1.126   2.489  -0.863
   -1.370   0.292  -0.124   1.314  -0.338  -0.583  -1.534  -0.228   0.148   0.804

    1.200  -4.032
   -0.258  -0.296   2.011   0.312   1.408   0.916  -0.420  -0.441   0.052   1.991
   -1.486   1.155   3.128   0.095  -0.041  -1.334  -0.544   0.936  -0.366   1.957
    2.146   0.385   0.652   0.553   1.124   0.068   1.564   0.457  -0.312   0.214
    1.202  -1.308   0.564  -0.617   0.157   0.678   1.049  -2.033   0.888   1.550
   -0.848  -0.648   0.783   0.101   1.920   1.777  -0.769   0.861  -2.688   1.826
   -0.012   1.262   1.028   0.380   0.010  -0.852  -0.191   1.968  -1.287  -1.846
   -0.522   1.935   1.806   1.323   0.127   0.307   2.131  -0.868   1.609  -1.199
    1.235  -0.841   1.894   1.135   1.403   1.785   0.308  -1.081  -1.510   0.375
   -0.831  -1.661  -1.416  -0.778  -0.606   0.709   0.275   1.725   2.762  -0.485
   -1.650   0.360  -0.550   1.115  -0.339   0.340  -1.321   0.130   0.727   0.710

    1.250  -3.224
    0.020  -0.679   1.742   0.042   1.537   0.444  -1.324   0.262  -0.181   1.842
   -1.648   1.042   3.099   0.204   0.180  -1.539  -0.756   0.141   0.115   1.546
    2.535   0.196   0.273   0.129   0.548   0.374   1.002   0.635  -0.619  -0.381
    1.499  -1.052   1.264  -0.516   0.392   0.380   0.938  -1.094   0.700   1.305
   -0.556  -1.196   0.916   0.578   1.263   2.046  -0.765   0.474  -3.262   1.918
   -0.451   0.886   1.780   0.138  -0.538  -1.457  -0.546   2.220  -1.784  -1.710
   -0.317   1.768   1.668   1.570  -0.001  -0.176   2.572  -0.379   1.899  -0.141
    1.473  -0.607   2.025   2.004   0.979   2.673  -0.217  -1.557  -0.914  -0.241
    0.148  -1.229  -1.944  -0.826  -0.525   0.180  -0.882   1.953   2.505  -0.375
   -2.292   0.659  -0.717   0.480  -0.335   1.109  -1.543  -0.331   0.433   0.724

    1.300  -3.120
    0.394  -1.014   1.983  -0.157   1.518   0.674  -0.638  -0.453  -0.187   1.075
   -0.906   0.826   3.550   0.363  -0.091  -1.499  -1.022   0.086   0.400   1.532
    1.591   0.092   0.201  -0.040   0.554   0.413   0.223   0.924  -1.044  -0.010
    1.816  -1.039   0.830   0.251   0.737   0.389   1.399  -0.769   0.352   1.332
   -0.846  -1.430   1.146   1.021   0.796   1.605  -0.808   0.037  -3.436   1.944
   -0.770   0.768   0.507  -0.004  -0.566  -0.964  -0.116   1.707  -1.853  -1.459
   -1.029   2.316   1.875   1.272  -0.139   0.012   2.019  -0.438   2.163  -0.201
    0.582  -0.357   2.354   2.011   0.309   2.831   0.123  -1.514  -0.336   0.095
   -0.303  -0.571  -2.748  -1.277  -0.015  -0.043  -1.280   1.198   2.332   0.001
   -2.009   0.720  -1.081   1.035  -0.478   1.025  -1.638   0.286  -0.083   0.906

    1.350  -3.035
    0.963  -1.615   1.651  -0.185   1.835   0.191   0.101  -0.979   0.112   0.688
   -1.090   0.784   4.400   0.234  -0.011  -0.868  -1.711   0.486  -0.399   1.533
    0.827  -0.342   0.112   0.253   0.220   0.415   0.452   0.681  -0.950   0.052
    0.939  -0.940   1.006   0.404   0.067   0.128   1.427  -0.946   0.390   1.391
   -0.680  -1.413   1.037   1.870   0.771   1.324  -1.530   0.753  -2.927   1.878
   -0.399   1.180   0.582   0.149  -0.599  -1.069  -0.240   1.382  -0.734  -1.854
   -0.783   2.492   1.391   1.051   0.070   0.528   2.550  -0.985   1.563  -0.225
   -0.428   0.163   2.191   1.592   0.598   2.417   0.713  -1.028  -0.903   0.072
   -0.021  -0.739  -2.774  -1.241  -0.167  -0.832  -1.209   1.600   2.529  -0.685
   -2.050   1.269  -0.970   1.078  -0.066   0.129  -1.509   0.201   0.226   1.260

    1.400  -2.886
    0.462  -2.085   1.126  -0.865   2.160  -0.155   0.634  -1.098  -0.283   0.343
   -1.121   1.390   3.694   0.165  -0.068  -0.581  -1.692   1.288  -0.313   1.211
    1.101  -0.143   0.338   0.014  -0.566   1.356   0.340   0.261  -1.786   0.009
    0.276  -1.009   1.153  -0.249  -0.650   0.375   0.665  -1.000   0.686   0.697
   -0.855  -1.659   1.384   1.580   1.069   1.214  -1.349   0.741  -2.886   1.825
   -0.778   0.209   1.013   0.262  -0.037  -0.841   0.056   0.992  -0.548  -1.187
   -1.102   2.396   1.108   0.971  -0.235   0.585   2.136  -1.190   1.271  -0.061
   -0.310  -0.495   2.076   1.420   0.612   2.360   0.883  -0.947  -0.950  -0.352
   -0.744  -1.038  -2.945  -1.936  -0.155  -0.728  -0.978   1.279   3.168  -0.797
   -1.805   1.162  -1.413   0.777  -0.430  -0.214  -1.425  -0.096   0.609   1.269

    1.450  -2.498
    0.197  -2.646   1.376  -0.093   1.904  -0.012   0.021  -0.805  -0.308   0.910
   -0.872   1.992   2.867   0.659   0.060  -0.452  -1.093   0.370  -0.893   1.357
    1.166  -0.336   0.283   0.466  -0.474   1.608   0.551  -0.099  -1.332   0.261
   -0.065  -0.823   1.390  -0.066  -0.349   0.376   0.788  -1.334  -0.027   0.443
   -0.417  -1.246   1.317   0.687   1.272   1.917  -1.509   0.306  -2.726   0.616
   -0.328   0.129   0.009   0.101   0.140  -0.164  -0.050   1.500  -0.640  -1.276
   -0.225   2.159   1.073   0.208  -0.511   0.571   2.140  -0.767   1.675  -0.146
   -0.735  -0.499   1.543   1.685   0.178   1.801   1.334  -0.726  -0.963  -0.434
   -0.440  -0.655  -3.049  -2.064   0.135  -1.133  -1.120   1.411   3.829  -0.592
   -2.165   0.796  -1.475  -0.150   0.077  -0.208  -1.257  -0.049   1.110   1.683

    1.500  -2.471
   -0.411  -2.786   1.702  -0.659   1.988  -0.143  -0.529  -1.245   0.675   1.160
   -0.695   1.368   2.252  -0.184   0.690  -0.320  -0.520   0.065  -0.248   1.477
    1.501  -0.171   0.053  -0.648  -0.544   0.863   0.683   0.394  -1.828   0.254
    0.347  -0.657   0.986   0.486  -0.443  -0.564   0.384  -1.436   0.060  -0.139
   -0.738  -1.123   1.129   0.978   1.502   1.481  -1.850  -0.066  -2.527   0.479
   -0.127  -0.428  -0.134  -0.341   0.392  -0.482   0.158   2.608  -0.888  -1.363
   -0.589   2.150   0.979   0.277  -0.499   0.894   2.304  -0.781   1.713   0.031
   -0.216  -0.252   1.361   1.797   0.283   1.840   0.879  -0.611  -0.317  -1.155
   -0.656  -0.118  -2.417  -1.023   0.591  -0.869  -1.010   1.029   3.457  -1.004
   -2.080   0.564  -1.818   0.356   0.051  -1.032  -0.551  -0.136   0.620   0.937

    1.550  -2.889
   -0.269  -2.055   1.538  -0.230   1.615  -0.106  -1.268  -1.219   0.408   1.769
   -0.869   0.928   2.663  -0.864   0.894  -0.389  -1.057   0.147  -0.093   1.833
    1.270   0.234  -0.294  -0.740  -1.529   0.363   0.514   1.275  -2.710   0.735
    0.699  -0.927   0.802   0.351  -1.131  -0.543   0.430  -0.874   0.214  -0.324
   -0.120  -0.625   1.239   0.853   1.436   0.612  -1.354  -0.566  -2.241   0.340
    0.165  -0.574   0.253  -0.866  -0.031  -0.075   0.497   2.444  -1.349  -1.430
   -0.196   2.500   0.570   0.597   0.046   0.903   2.032  -1.504   1.070  -0.357
    0.010  -0.219   1.429   1.474   0.598   1.915   0.440  -1.159   0.113  -0.940
   -0.680  -0.076  -2.248  -0.876   0.821  -0.792  -1.626   0.769   2.784  -1.683
   -2.216   0.130  -1.290   0.297   0.038  -0.928  -0.917   0.334   0.682   1.276

    1.600  -2.273
   -0.322  -1.786   1.035  -0.284   1.327   0.057  -1.478  -1.204   0.116   2.358
   -0.675   0.410   3.045  -1.309   0.631   0.203  -0.932  -0.277   0.328   0.890
    1.623   0.581  -0.567  -0.441  -1.445  -0.006   0.869   1.403  -2.735   0.488
    0.841  -0.745   0.667   0.866  -0.777   0.131   0.434  -1.313   0.680   0.202
   -0.111  -0.508   1.317   0.423   1.588   1.151  -1.541  -0.384  -2.300   0.715
    0.955  -0.417  -0.349  -0.344  -0.443  -0.152   0.189   2.334  -2.141  -1.552
   -0.072   2.966   0.330  -0.034  -0.105   1.260   2.052  -1.715   1.280   0.098
    0.323   0.224   1.236   1.028   0.394   1.720   0.271  -1.633   0.747  -1.144
   -0.526  -0.153  -3.127  -1.500   1.019  -1.013  -1.494   1.080   2.601  -1.273
   -2.221  -0.305  -1.160  -0.482  -0.627  -1.128  -0.324   0.278   0.006   1.479

    1.650  -2.106
   -0.622  -1.900   0.550  -0.239   1.648  -0.244  -2.119  -0.381  -0.042   2.374
    0.207   0.236   2.142  -0.720   0.847   0.676  -0.190  -0.503  -0.161   1.025
    1.264   0.182  -0.773  -0.037  -1.545   0.244   0.704   0.785  -2.598   0.990
    0.866  -0.025   0.925   0.804  -0.647   0.658   0.750  -1.211   0.918  -0.201
    0.281  -0.268   0.504   0.138   0.942   1.176  -1.778  -0.259  -1.982   0.595
    0.275   0.377  -0.958  -1.282  -0.488  -0.404   0.457   2.042  -2.024  -1.487
   -0.042   3.035  -0.062   0.108   0.106   0.671   1.096  -1.421   1.386  -0.122
    0.444   0.127   1.001   1.779   0.286   1.376   0.144  -2.077   0.717  -0.896
   -1.174  -0.805  -2.999  -1.666   0.326  -1.517  -1.484   1.728   1.668  -0.905
   -2.031  -0.119  -0.867  -0.656  -0.970  -1.425   0.179   0.799  -0.231   1.079

    1.700  -1.915
   -0.789  -1.280   0.795   0.005   2.473  -0.525  -2.470   0.102  -0.453   2.440
   -0.337  -0.392   2.515   0.120   0.745   0.676  -0.281  -0.040   0.063   1.466
    1.692   0.070  -0.681  -0.108  -0.744   0.476   0.447   0.855  -2.121   1.588
    0.316   0.578   1.087   0.226  -0.007   0.406   0.404  -1.532   1.203  -0.266
    0.576  -0.233   1.082   0.392   1.134   1.092  -1.630   0.062  -1.616   0.226
    0.396  -0.004  -0.622  -1.193  -0.584   0.057   0.357   2.043  -1.178  -1.812
   -0.440   2.822   0.509   0.049   0.300   0.465   1.058  -1.205   1.731  -0.050
    0.393   0.438   0.378   1.885   0.234   1.535   0.487  -2.516   0.802  -0.758
   -1.513  -0.211  -2.683  -2.088   0.178  -1.385  -1.485   1.672   1.447  -0.441
   -1.989   0.320  -0.640  -0.731  -0.938  -1.620   0.438   1.322  -0.914   0.758

    1.750  -2.612
   -1.385  -1.220   1.147   0.487   2.475  -0.552  -2.333   0.001  -0.065   2.045