
This full-field turbulence file was generated by TurbSim (v1.40, 12-Sep-2008) on 21-May-2021 at 12:51:28.

 | u-comp |  Y  x  Z  | Grid Resolution (Y x Z) | Time-step | Hub Elev | Mean U |
            10    10     15.556     15.556          0.050      80.00     11.00

 Z Coordinates (m):
  -70.000 -54.444 -38.889 -23.333  -7.778   7.778  23.333  38.889  54.444  70.000

 Y Coordinates (m):
  -70.000 -54.444 -38.889 -23.333  -7.778   7.778  23.333  38.889  54.444  70.000

    0.000   9.273
   10.989   8.644   7.704  11.477   9.951  10.016  10.568  12.776  13.001  10.897
    8.700   9.137  11.167   9.296  11.318   8.873   9.806  12.063  14.275  11.622
    8.595   8.222   8.255   9.445  10.043  10.071  10.093   9.800  10.490  12.874
    7.025   8.267   9.543   6.877   8.524   9.702  10.237   9.222  11.744  10.881
    6.939   8.550   9.302   8.192   7.383   9.156   8.105  10.053  11.794   9.252
    6.419   7.866   9.392   7.618   9.488   8.681   9.200   8.994  11.496  10.591
    8.203   7.727   9.263  10.556   8.820  10.960   9.281   9.594   9.177   9.050
    7.103   5.888   9.140   7.830   6.917   8.250   9.225   9.656   8.869  10.075
    7.311   5.409   6.499   8.437   7.094   8.771   8.391   8.345   7.771  10.093
    4.932   6.143   5.195   6.959   7.733   6.357   7.698   7.549   7.439   9.404

    0.050   9.273
   10.518   8.918   8.311  11.326  10.171  10.073  10.465  12.473  13.575  11.199
    8.641   9.345  11.108   9.370  11.652   8.992   9.962  12.034  13.878  11.468
    8.463   7.989   8.061   9.340  10.012  10.097  10.188   9.957  10.604  12.552
    6.833   8.618   9.800   6.689   8.906   9.814  10.621   9.164  11.344  10.873
    7.135   8.562   9.096   8.504   7.511   8.804   8.398   9.954  11.629   9.120
    6.380   8.015   9.188   7.698   9.435   9.466   9.600   9.038  11.895  10.450
    8.017   7.641   9.181  10.394   9.181  11.058   9.235   9.558   9.160   9.232
    7.414   5.204   9.056   8.064   7.044   8.450   9.552   9.702   8.716  10.253
    7.201   5.282   6.230   8.473   6.795   8.922   8.440   8.115   7.963   9.653
    5.170   6.316   5.099   7.051   7.666   6.174   7.482   7.319   7.392   9.753

    0.100   9.075
   10.446   8.860   8.082  11.983  10.062   9.838  10.329  12.044  13.522  11.268
    9.014   8.964  10.924   9.495  11.119   9.160   9.868  12.191  13.956  11.533
    8.202   8.535   8.563   9.411  10.066  10.292   9.719  10.367  10.929  12.728
    6.779   8.626   9.871   6.874   8.510   9.799  11.111   9.084  11.559  10.608
    7.229   8.402   8.833   8.482   7.290   8.669   8.132   9.958  11.337   8.778
    6.803   8.224   8.841   7.770   9.278   9.027   9.800   8.565  11.871  10.401
    8.014   7.511   9.690  10.327   8.552  10.574   9.199   8.998   8.994   9.196
    7.007   4.930   8.850   7.985   7.084   8.234   9.501   9.431   8.444  10.392
    7.111   5.750   6.517   8.762   6.720   9.055   8.281   8.035   7.994   9.850
    4.970   6.403   4.774   6.732   7.562   5.515   7.448   7.198   7.250   9.579

    0.150   9.240
   10.388   9.045   7.993  11.792   9.887   9.817  10.629  12.328  13.186  11.118
    8.484   8.825  10.892  10.109  10.833   9.072  10.224  12.379  14.307  11.493
    8.585   8.415   8.532   9.509  10.183  10.739   9.775  10.370  11.165  12.563
    7.192   8.371   9.483   6.990   8.859   9.933  10.767   8.693  11.459  10.732
    7.295   8.836   8.780   8.261   7.323   8.574   8.059  10.400  11.114   9.012
    6.651   8.733   8.642   7.332   9.303   8.799   9.715   8.766  11.325  10.438
    8.037   7.950   9.310  10.153   9.003  11.029   9.296   8.954   9.339   8.723
    6.842   5.282   9.178   7.925   7.340   8.166   9.444   9.545   8.280  10.504
    6.468   5.940   6.841   8.999   6.578   8.625   8.744   7.771   7.823   9.943
    5.172   6.631   4.614   6.575   7.112   5.819   7.781   7.286   7.760  10.086

    0.200   9.079
   10.476   9.030   7.400  11.919  10.333  10.123  10.880  12.471  12.801  10.658
    8.514   8.830  10.860  10.302  10.503   9.085  10.196  12.492  14.082  11.580
    8.859   8.770   8.476   8.973  10.781  10.823   9.553  10.699  11.121  12.689
    7.395   8.591   9.248   7.310   8.946   9.656  10.972   8.820  11.557  11.071
    7.770   9.058   9.176   7.752   6.922   8.767   7.521  10.286  11.090   8.557
    6.992   8.933   8.721   7.518   9.915   8.726   9.890   8.814  11.193  10.614
    8.105   7.646   9.496   9.836   8.733  10.789   9.691   8.700   9.398   8.625
    6.750   5.417   8.993   7.774   8.225   8.248   9.503   9.761   8.492  10.318
    6.747   5.602   7.037   9.119   7.028   8.999   8.637   7.813   7.828  10.182
    4.742   6.589   4.644   6.509   7.086   5.702   7.619   7.253   7.730   9.772

    0.250   9.124
   10.750   9.314   7.129  11.954   9.742  10.207  10.839  12.413  12.481  10.619
    9.098   9.246  10.612  10.244  10.680   9.330  10.355  12.216  14.294  11.595
    9.284   9.067   8.282   9.004  10.521  10.851   9.686  10.168  11.202  12.650
    7.269   8.601   9.409   7.676   9.174   9.249  11.630   8.923  11.297  10.970
    8.463   8.838   9.175   8.004   6.663   9.031   7.778   9.917  11.064   9.065
    6.821   9.273   8.553   7.528   9.856   8.832   9.680   8.900  11.045  10.762
    8.366   7.575   9.479   9.583   8.859  10.672   9.340   8.660   9.607   8.473
    6.855   5.815   9.196   7.266   8.262   8.024   8.879   9.720   8.461  10.437
    7.195   5.340   6.968   8.811   7.161   9.060   8.570   7.851   8.152  10.225
    4.702   6.695   4.840   6.268   6.723   5.546   7.346   7.388   7.811   9.398

    0.300   8.979
   10.458   9.571   7.542  11.971   9.359   9.946  10.802  12.435  12.074  10.805
    9.092   9.675  10.524  10.021  10.716   9.693  10.623  12.556  14.324  11.344
    8.924   9.374   8.128   9.020  10.469  10.846  10.000   9.974  11.290  12.801
    7.236   8.744   9.298   7.678   9.126   9.518  11.557   8.869  11.756  10.640
    8.374   8.777   9.218   8.079   6.621   8.492   8.172  10.036  11.198   8.989
    6.377   9.372   8.869   7.833  10.432   8.952   9.812   9.153  11.256  10.563
    8.205   7.909   9.673   9.233   9.407  10.818   9.324   9.128   9.475   8.687
    6.854   5.911   8.628   7.147   8.131   8.207   8.735   9.532   8.181  10.921
    6.812   5.901   6.855   9.187   6.819   8.612   8.495   7.985   8.081  10.237
    4.718   6.807   5.152   6.417   6.669   5.674   7.640   7.719   7.791   9.353

    0.350   9.310
   10.395   9.483   7.446  11.670   9.384   9.829  10.900  12.471  12.125  10.542
    8.782  10.224  10.549  10.258  10.771  10.066  10.931  12.808  14.208  11.560
    8.901   9.483   8.636   9.032  10.587  10.547  10.098  10.355  11.565  12.562
    7.497   8.774   9.084   7.900   9.135   9.315  11.667   8.900  11.595  10.485
    8.795   9.301   9.622   8.095   6.889   8.456   7.970   9.989  11.257   9.262
    6.265   9.701   8.807   7.961  10.302   8.708  10.180   9.208  11.076  10.460
    8.208   8.393   9.486   9.540   9.349  10.548   9.386   9.127   9.872   8.564
    7.346   6.357   8.627   7.899   8.126   8.638   9.253   9.581   8.374  10.993
    6.892   5.940   6.753   9.256   6.945   8.348   8.573   8.402   7.819  10.147
    4.567   6.857   5.308   6.116   6.410   5.521   7.206   7.713   7.657   9.416

    0.400   9.245
   10.217   9.240   7.526  11.640   9.278  10.101  10.804  13.099  12.240  10.786
    8.618  10.563  10.090   9.771  10.978  10.090  10.951  12.967  13.689  11.629
    8.596   9.330   8.656   9.225  10.621  10.679   9.874  10.448  11.369  12.273
    7.290   8.169   8.611   7.927   8.735   9.092  11.818   8.867  11.252  10.623
    8.839   9.100   9.519   8.012   7.066   8.924   7.910  10.367  11.531   9.315
    6.461  10.104   8.793   8.483  10.521   8.499  10.168   9.257  11.330  10.547
    8.241   8.787   9.660   9.517   9.289  10.321   9.694   9.157   9.792   8.395
    7.226   6.272   8.374   7.845   8.321   9.345   9.238   9.596   7.838  11.600
    6.873   6.028   6.835   9.112   7.258   8.646   8.776   8.014   8.321  10.091
    4.580   6.722   5.476   6.113   6.499   6.124   7.210   8.094   7.785   9.291

    0.450   9.294
   10.313   9.026   7.334  11.191   9.193  10.305  10.638  12.745  11.980  10.727
    8.884   9.836  10.282   9.827  11.343  10.490  11.226  12.843  13.655  11.578
    8.454   9.261   8.818   9.289  10.276  10.671  10.069  10.600  10.922  12.453
    7.517   8.028   8.398   7.995   8.746   8.429  12.036   8.558  11.077  10.428
    8.613   9.094   9.626   7.876   7.660   9.017   7.830  10.396  11.859   9.177
    6.850   9.872   8.938   8.151   9.860   8.078   9.779   9.274  11.712  10.657
    8.485   8.742   9.686   9.392   9.181  10.387   9.093   8.994   9.966   8.234
    7.360   6.480   8.191   7.541   8.920   9.270   9.316   9.574   7.812  11.744
    7.066   6.053   6.522   9.062   6.776   9.119   8.462   8.323   8.449  10.402
    4.823   6.111   5.257   6.146   6.463   6.496   7.675   8.172   7.912   9.586

    0.500   9.230
   10.168   8.924   7.673  10.725   9.436  10.362  10.535  12.789  11.864  10.484
    8.757   9.527  10.397   9.616  11.521  10.437  10.960  12.671  13.601  11.591
    8.235   9.510   9.227   9.439  10.665  10.748  10.325  10.612  11.650  12.295
    7.762   7.887   8.573   7.890   9.312   8.280  11.615   8.600  11.175  10.433
    8.405   8.753   9.936   7.722   7.709   8.792   8.039  10.587  11.978   9.485
    6.732   9.695   9.799   8.280   9.752   8.086   9.659   9.055  11.828  10.541
    8.248   9.078   9.668   9.180   9.538  10.219   9.107   9.469  10.071   8.103
    7.858   6.611   8.426   7.118   8.882   9.638   9.097   9.152   7.861  11.285
    7.374   5.905   6.250   8.782   6.777   9.367   8.671   8.292   8.457  10.282
    4.352   6.332   4.871   6.320   6.418   6.187   8.060   8.022   7.934   9.285

    0.550   9.260
   10.363   8.304   8.018  10.779   9.790  10.315  10.027  12.513  11.866  10.592
    8.490   9.293  10.225   9.745  11.427  10.391  11.208  12.317  13.692  11.243
    8.423   9.428   9.112   9.676  10.747  10.423  10.983  10.814  11.256  12.161
    7.435   8.515   8.671   7.992   9.300   8.384  11.465   8.704  11.500  10.228
    8.503   8.799   9.371   7.544   7.324   8.651   8.506  10.657  12.415   9.630
    6.526   9.838   9.823   8.349   9.542   8.190   9.216   9.097  11.702  10.063
    8.404   8.835   9.622   9.650   9.305  10.153   9.174   9.787   9.788   8.582
    8.097   6.514   8.567   7.029   8.384   9.480   9.270   8.783   7.582  11.040
    7.687   5.947   6.379   8.455   6.996   9.081   8.806   8.423   8.347  10.694
    4.738   6.219   5.044   5.998   6.450   6.371   7.818   8.380   8.262   9.322

    0.600   8.583
   10.440   8.234   8.110  10.445   9.356  10.324   9.464  12.299  11.991  10.278
    8.447   9.340  10.077   9.752  10.776  10.758  11.201  12.008  13.458  11.430
    8.563   9.207   9.087   9.361  10.564  10.786  10.999  10.758  11.016  12.015
    7.456   8.402   8.642   8.003   9.470   8.469  11.504   8.737  11.508   9.900
    9.218   8.934   8.869   7.424   7.634   7.972   8.901  10.644  12.585   9.827
    6.286   9.540   9.563   8.308   9.346   8.153   9.516   9.180  11.696  10.064
    8.231   8.749   9.506   9.993   9.345  10.289   9.137  10.353   9.986   8.858
    7.827   6.156   8.192   7.101   8.306   8.986   9.363   8.338   7.645  11.170
    8.034   6.491   6.815   8.440   7.058   8.813   9.399   8.411   8.791  11.223
    4.566   6.272   5.309   6.150   6.785   6.195   8.190   8.327   8.465   8.927

    0.650   9.133
   10.187   8.967   7.620  10.386   9.461  10.113   9.530  12.593  11.973  10.549
    8.255   9.224   9.999   9.570  10.968  10.861  11.049  12.066  13.517  11.031
    8.436   9.216   9.091   9.331  10.734  10.798  11.364  10.996  10.798  12.410
    7.629   8.566   8.614   7.741   9.279   9.056  12.063   8.827  11.789  10.293
    9.536   8.729   8.837   7.774   7.763   8.573   8.992  11.293  12.250   9.727
    6.832   9.770   9.542   8.749   9.713   7.920   9.334   9.593  11.819  10.009
    8.408   8.738   9.721   9.724   9.665  10.509   9.089  10.281   9.719   8.873
    7.634   6.405   8.854   6.984   8.151   9.024   9.823   8.691   7.631  11.089
    7.481   5.974   6.909   8.782   7.022   8.995   9.344   8.980   8.807  11.193
    4.525   5.657   5.162   5.991   6.721   5.967   7.716   8.298   8.471   8.742

    0.700   9.283
   10.109   8.720   7.945  10.611   9.748  10.472   9.349  12.734  12.364  10.499
    8.817   9.364  10.142   9.330  11.181  10.641  11.104  12.062  13.492  10.927
    8.493   9.412   8.948   9.292  10.849  10.900  11.111  11.177  10.545  12.362
    7.098   8.494   8.529   7.774   9.800   8.947  12.065   8.964  11.512   9.801
    9.594   8.600   8.807   7.978   7.765   8.358   8.870  10.954  11.886  10.036
    6.620  10.165   9.235   8.964   9.662   8.131   9.335   9.568  12.180   9.951
    8.313   8.304   9.540   9.895   9.804  10.080   9.260  10.458   9.799   8.876
    7.833   6.429   9.096   6.903   7.940   9.165   9.472   8.787   7.861  10.724
    7.912   6.396   6.704   8.884   7.037   9.138   8.740   8.931   9.224  10.797
    5.162   5.787   5.323   6.041   6.898   5.761   7.747   8.217   8.636   9.054

    0.750   8.925
   10.640   8.927   8.112  10.731   9.699  11.083   9.581  12.494  12.254  10.127
    8.982   9.514  10.382   9.047  10.888  10.371  11.027  12.064  13.650  10.765
    8.230   9.386   9.425   9.408  10.386  11.244  11.401  10.723  10.853  12.583
    7.279   7.991   9.094   7.746   9.992   8.727  11.868   9.181  11.268   9.681
    9.549   8.836   8.697   7.497   7.898   8.506   8.503  10.726  11.799  10.493
    6.749   9.469   9.351   8.997   9.954   8.428   9.648   9.525  12.234   9.977
    8.252   8.408   9.549   9.498   9.640   9.579   9.222  10.673   9.460   8.481
    7.458   6.736   9.188   7.040   7.825   9.267   9.166   8.631   7.938  10.909
    8.276   6.013   6.861   8.840   6.979   9.098   8.724   8.694   9.357  10.568
    5.565   5.775   4.838   6.240   6.928   5.781   7.220   8.053   8.466   8.411

    0.800   9.161
   10.371   8.891   8.041  10.430   9.525  10.732   9.588  12.351  12.117   9.982
    8.663   9.723  10.335   8.548  10.952  10.028  11.205  11.724  13.361  10.852
    8.090   9.555   9.776   9.428  10.352  11.281  11.042  10.303  10.967  12.789
    7.389   8.175   9.585   7.820   9.658   8.587  11.790   8.865  11.292   9.645
    9.246   9.202   9.034   7.707   8.019   8.576   8.733  10.907  11.847  10.025
    6.677   9.568   9.220   9.385   9.953   8.626   9.942   9.638  12.062   9.962
    8.657   7.986   8.972   9.636   9.454   9.871   9.660  10.550   9.436   8.400
    7.114   6.542   9.440   6.928   7.626   9.339   8.960   8.795   7.832  11.185
    8.884   6.069   6.710   8.648   7.068   9.200   8.470   8.571   9.675  10.524
    5.405   5.798   4.619   6.118   7.147   5.714   7.189   8.498   7.767   8.575

    0.850   9.283
   10.497   8.691   7.796  10.806   9.436  11.123   9.312  12.297  12.467  10.290
    8.457   9.652  10.404   9.101  10.687   9.995  11.214  11.817  13.772  11.193
    8.546   9.657   9.914   9.325  10.249  11.277  10.910  10.238  10.811  12.584
    7.687   8.336   9.312   7.786   9.282   8.700  11.268   9.202  11.463   9.764
    9.647   9.292   8.660   7.522   8.036   8.588   9.036  10.580  11.310   9.774
    6.772   9.571   9.313   9.185  10.488   8.823   9.889   9.755  11.975   9.705
    9.101   8.072   9.018   9.482   9.604  10.081  10.008  10.280   9.286   8.548
    7.653   6.433   9.142   6.914   7.784   9.229   8.716   9.200   8.093  11.285
    9.409   5.854   6.643   8.716   7.212   9.370   8.457   8.701   9.756  10.539
    5.514   5.618   4.334   5.961   7.431   5.391   7.903   8.226   7.717   8.423

    0.900   9.209
   10.229   8.932   8.133  10.653   9.574  10.783   9.643  12.408  12.063  10.547
    8.706   9.619  10.210   9.121  11.031  10.159  11.043  12.227  13.922  11.474
    8.616  10.583   9.758   9.474   9.984  11.473  11.571  10.585  10.335  12.266
    8.127   8.808   9.014   7.701   9.155   8.406  11.046   9.587  11.649   9.699
    9.986   8.882   8.656   7.570   8.231   8.198   9.292  10.243  11.582   9.606
    6.976   9.301   9.423   9.582  10.241   8.584  10.109   9.768  11.828   9.637
    9.241   7.789   8.521   9.521   9.461  10.128   9.741  10.205   9.250   8.855
    7.604   6.611   9.073   7.036   8.112   9.613   9.009   9.269   8.037  10.791
    9.628   5.901   7.020   8.411   7.646   9.510   8.253   8.106   9.361  10.355
    5.198   5.933   4.255   5.941   7.371   6.037   7.796   8.427   7.917   8.391

    0.950   9.393
   10.401   9.104   7.912  10.520   9.772  10.760   9.810  11.842  12.121  10.533
    8.645   9.500   9.899   8.873  10.910   9.953  10.670  12.138  13.548  11.321
    8.717  10.530   9.722   9.271  10.247  11.391  11.640  10.714  10.143  12.175
    8.195   8.218   9.795   8.116   9.675   8.654  11.119   9.649  11.904   9.666
    9.665   9.051   8.678   7.756   8.193   8.616   9.158  10.194  11.799   9.408
    7.377   9.595   8.979   9.963  10.138   8.435  10.363  10.024  11.699   9.687
    9.493   7.780   8.310   9.981   8.948  10.370   9.728  10.454   9.518   8.878
    7.550   6.639   9.004   7.033   7.770  10.058   9.278   8.853   7.963  10.815
    9.255   5.839   7.425   8.910   7.468   9.822   7.644   8.503   9.602  10.421
    5.226   5.814   4.268   6.110   7.567   6.159   8.169   8.276   7.622   8.583

    1.000   9.235
   10.752   9.294   8.439  10.750   9.573  10.608   9.640  11.707  12.034  10.365
    8.886   9.280  10.016   8.669  10.484  10.307  11.254  12.036  13.742  11.144
    8.651  10.317   9.967   8.911  10.226  10.830  11.507  10.792  10.635  11.739
    8.018   8.314   9.592   8.190   9.822   9.271  11.261   9.489  11.586   9.997
    9.316   9.147   9.090   8.116   8.028   8.336   9.276  10.780  11.715   9.741
    7.186   9.698   8.315   9.727   9.930   8.883  10.449  10.096  11.347   9.557
    9.345   8.259   8.485  10.254   8.761  10.363   9.846  10.442   9.391   8.986
    7.810   6.938   8.930   6.793   7.267  10.231   9.570   8.935   8.180  10.607
    9.089   6.106   7.203   9.069   7.427   9.861   7.782   8.392   9.149  10.357
    4.870   5.900   4.560   6.259   7.235   5.876   8.218   8.424   7.457   8.519

    1.050   8.589
   10.662   9.164   8.829  10.745   9.929  10.365   9.680  11.524  11.967  10.463
    9.115   9.598  10.712   9.008  10.612  10.271  11.544  12.073  13.738  11.416
    8.441  10.157   9.926   9.092  10.320  10.833  11.315  10.685  10.302  11.821
    7.715   8.659   9.695   8.565   9.828   9.195  11.658   9.129  11.356   9.763
    8.905   8.888   9.120   8.256   8.379   8.736   9.184  11.106  11.632   9.241
    7.204   9.595   8.581   9.568   9.618   9.144  10.302   9.869  11.153   9.521
    9.502   8.933   9.025  10.560   9.339  10.359  10.021   9.998   9.638   8.955
    7.621   6.475   9.323   6.632   7.334  10.154   9.286   8.652   8.870  10.520
    8.818   6.074   7.006   9.108   7.328  10.065   8.085   8.563   9.345  10.278
    5.035   6.270   4.956   6.179   7.727   5.902   8.623   8.797   7.535   8.868

    1.100   8.770
   10.651   9.259   8.845  10.991  10.017  10.431   9.724  11.570  11.761  10.279
    9.288  10.105  10.790   8.826  10.968  10.663  10.989  12.340  13.918  10.743
    8.478  10.274   9.922   9.520  10.196  10.329  11.043  10.308  10.360  11.566
    7.629   8.876   9.672   9.178   9.625   9.325  11.667   8.860  11.129   9.728
    9.122   8.347   8.940   8.687   8.207   8.928   9.494  11.637  11.574   9.262
    7.056   9.657   8.446  10.134   9.304   9.183  10.720   9.908  11.145   9.591
    9.455   9.104   9.368  10.573   9.254  10.529   9.912   9.902   9.348   9.094
    7.321   6.929   9.221   7.149   7.584  10.228   9.163   8.624   9.322  10.645
    8.640   5.837   6.934   8.615   6.668  10.146   8.271   8.255   9.078  10.206
    4.968   5.873   4.820   6.274   7.302   5.921   8.386   8.298   7.610   9.041

    1.150   8.315
   10.350   9.791   8.867  10.539   9.770  11.063   9.810  11.445  11.229   9.772
    9.344  10.053  10.231   8.845  10.607  10.637  11.416  12.979  13.684  10.676
    8.250   9.894   9.541   9.525  10.466  10.295  11.018  10.461  10.183  11.347
    7.800   8.638   9.790   8.890   9.285   9.197  11.235   9.038  11.428   9.710
    9.240   8.600   8.978   9.239   8.119   8.741   9.638  11.610  11.034   9.314
    7.199   9.925   8.693  10.077   8.868   9.179  11.067   9.744  11.128   9.770
    9.442   8.237   9.014  10.478   9.333  10.398  10.012   9.999   8.825   8.996
    7.337   6.776   9.048   7.360   7.864  10.280   8.900   8.490   9.033  10.551
    8.398   6.005   7.001   8.798   6.696   9.692   8.696   8.527   9.014  10.286
    4.653   6.122   4.863   6.200   7.397   6.356   8.486   8.584   7.421   9.069

    1.200   8.385
   10.709  10.328   8.766  10.884   9.765  10.675   9.685  11.756  10.992   9.536
    9.549   9.881  10.113   8.713  10.574  10.496  11.354  13.302  13.833  10.717
    8.271   9.226   9.228   9.300  10.768  10.027  10.993  10.198   9.883  11.558
    7.674   8.447   9.929   8.785   9.137   9.060  11.104   8.696  11.529   9.471
    9.303   8.712   9.012   9.524   8.460   9.108   9.778  11.377  11.007   9.291
    6.792  10.072   8.713  10.302   9.038   8.658  11.571   9.778  10.948   9.688
    9.651   8.130   8.787  10.226   8.939  10.307   9.939   9.974   8.663   9.263
    7.456   7.133   8.884   6.981   7.816  10.007   8.750   8.612   9.146  10.364
    8.323   6.349   7.029   8.858   6.961   9.858   8.602   8.531   8.778  10.032
    4.463   6.083   5.192   6.638   7.622   6.257   8.781   8.624   7.278   9.470

    1.250   8.478
   10.299  10.423   8.520  10.463  10.019  10.577   9.775  11.695  10.891   9.902
    9.875   9.561  10.117   8.779  10.639  10.321  11.593  12.927  13.129  10.536
    8.278   9.944   9.502   9.240  10.918   9.997  10.956  10.243   9.437  11.490
    7.619   8.443  10.341   8.538   8.955   9.058  11.053   9.175  11.116   9.737
    9.204   8.800   9.740   9.404   8.412   9.262   9.402  11.743  10.703   9.587
    6.443  10.283   8.681  10.144   9.074   8.707  11.481   9.661  11.272   9.658
    9.315   7.995   8.594   9.431   8.681  10.031   9.909   9.618   8.870   9.525
    6.949   7.281   8.656   7.510   7.803  10.404   9.071   8.538   9.099  10.708
    7.972   6.104   6.974   8.519   7.161   9.914   8.564   8.302   8.881  10.222
    4.726   6.325   4.950   6.410   7.769   6.748   8.589   8.828   7.285   9.285

    1.300   8.559
    9.554  10.073   8.322  10.335  10.349  10.436  10.136  11.796  10.518   9.774
    9.625   9.993   9.966   8.937  11.074  10.258  11.581  12.812  12.805  10.644
    8.145   9.824   9.094   9.271  10.813  10.021  10.909  10.355   9.767  11.929
    7.437   8.757  10.022   8.399   8.971   9.335  11.449   9.273  10.697   9.557
    8.953   8.727   9.500   9.310   8.319   9.260   9.737  11.542  11.060   9.333
    6.956   9.744   8.914  10.568   8.887   9.042  11.227   9.969  10.985   9.594
    9.054   7.991   8.543   9.351   8.724   9.931   9.614   9.351   8.819   8.945
    7.132   7.456   8.498   7.800   8.088  10.609   9.222   8.766   9.445  10.570
    8.003   6.028   6.789   8.600   6.969  10.002   8.184   8.215   8.632  10.134
    4.531   6.027   5.381   6.362   7.328   7.098   8.490   9.247   8.027   9.647

    1.350   8.816
    9.757  10.100   8.333  10.562   9.804  10.438   9.972  11.657  10.825   9.764
    9.707   9.704  10.326   8.491  11.164  10.258  11.201  12.688  12.793  10.258
    8.032   9.658   9.163   8.922  10.852  10.089  11.147  10.152   9.781  12.197
    7.270   8.854   9.994   8.427   8.715   9.894  11.577   9.631  10.492   9.648
    8.791   8.806   9.615   9.418   8.348   9.643  10.132  11.135  11.405   9.232
    7.571   9.360   8.910  10.273   9.402   9.222  11.364   9.911  10.796   9.690
    9.043   7.936   8.532   9.526   8.808   9.981   9.901   9.237   8.538   8.721
    7.002   7.648   8.332   8.185   7.856  10.424   8.955   8.721   9.286  10.469
    8.176   5.838   6.919   8.687   6.564  10.204   8.291   8.564   8.749   9.847
    4.169   5.790   5.597   6.217   7.431   7.031   8.273   8.815   7.970   9.433

    1.400   8.084
   10.000  10.594   8.703  10.372   9.652  10.489  10.161  11.595  10.498  10.121
    9.116   9.480  10.425   8.490  10.899  10.152  10.998  12.470  12.630  10.004
    7.948   9.741   9.150   9.516  10.905   9.784  11.221  10.343  10.158  11.605
    6.883   8.863  10.001   8.853   8.647  10.274  11.417   9.972  10.494   9.694
    8.975   8.654   9.579   9.469   8.274   9.409   9.970  11.361  11.144   9.100
    7.728   9.767   9.512  10.578   9.503   8.892  11.106   9.691  10.805   9.756
    8.912   8.025   8.337   9.530   8.695  10.425  10.030   9.213   8.654   8.455
    7.020   7.488   8.411   8.063   7.938  10.610   9.012   8.214   9.264  10.179
    7.741   6.050   6.631   8.619   6.663  10.276   8.470   8.477   8.969   9.911
    4.332   5.849   5.891   6.083   7.269   7.183   7.796   8.193   8.203   9.090

    1.450   8.032
    9.785  10.827   9.502  10.720   9.335  10.571  10.637  11.738  10.149  10.392
    9.102   9.341  10.355   8.907  10.830   9.987  10.839  12.365  12.859  10.549
    7.862  10.141   9.030   9.275  11.036   9.685  11.170  10.180   9.526  11.482
    6.544   8.857  10.288   8.771   8.687  10.038  11.101   9.460  10.595   9.446
    8.973   8.460   9.374   9.496   8.270   9.763   9.873  11.623  11.011   8.196
    8.086  10.085   9.650  10.527   9.381   9.108  10.736   9.993  10.624   9.975
    9.190   8.034   8.002   9.338   8.983  10.462  10.022   9.484   8.446   8.663
    7.045   7.193   8.248   8.475   8.220  10.737   8.765   8.486   9.358  10.261
    7.949   6.411   6.966   8.694   7.179  10.845   8.515   8.045   9.041   9.866
    4.723   5.290   5.355   6.114   7.153   6.643   7.621   7.961   8.299   9.031

    1.500   8.161
    9.686  10.549   9.363  10.534   9.279  10.758  10.756  11.529   9.888  10.227
    9.086   9.055  10.114   8.871  11.307   9.762  10.582  12.173  13.029  10.904
    8.251  10.243   8.791   9.086  10.352   9.523  11.253  10.236   9.228  11.710
    6.708   9.100  10.180   8.481   9.212  10.485  11.160   9.321  10.940   9.679
    9.173   8.675   9.082   8.993   8.860   9.875  10.014  11.273  10.889   8.087
    7.405  10.091   9.636  10.307   9.327   9.228  10.842   9.969  10.724   9.972
    8.689   7.942   7.787   9.047   8.645  10.369  10.169   9.397   8.615   8.864
    6.763   7.370   8.228   8.305   8.280  10.821   8.888   8.783   9.478  10.464
    7.837   6.414   7.427   8.598   7.241  10.994   8.735   8.216   9.291   9.895
    4.515   5.492   5.109   5.944   7.082   6.194   7.476   7.779   8.260   9.104

    1.550   8.438
    9.731  10.420   9.759  10.693   9.786  10.976  10.475  11.621  10.367   9.934
    8.979   8.940  10.163   8.420  11.541  10.216  11.343  11.754  13.000  10.517
    8.516  10.156   9.315   8.911  10.476   9.396  11.755  10.666   9.118  11.443
    7.048   9.224  10.538   8.260   9.121  10.412  10.929   9.859  10.603   9.644
    8.896   8.397   8.896   8.866   8.763  10.442  10.423  11.187  11.271   8.169
    7.243   9.556   9.520  10.298   9.492   9.443  11.070   9.576  10.765   9.856
    8.990   8.199   7.938   8.827   8.727  10.276   9.597   9.478   8.722   8.334
    6.644   7.704   8.159   8.364   8.375  11.270   8.542   9.191   9.615  10.338
    7.831   6.486   7.363   8.182   7.465  10.749   8.875   8.649   9.224   9.550
    4.576   5.419   4.868   5.489   7.268   6.616   7.174   8.247   8.360   8.849

    1.600   8.034
    9.941  10.118   9.856  10.725   9.561  10.649  10.185  11.537  10.642  10.190
    8.867   9.433  10.316   8.260  11.191  10.268  11.910  11.638  12.948  10.789
    9.139  10.409   9.635   9.202  10.615   9.365  11.765  10.864   9.025  11.564
    7.088   9.016  10.686   8.859   9.653  10.372  11.337   9.553  10.295   9.713
    9.087   8.914   9.151   8.537   8.678  10.395  10.387  11.711  11.841   8.700
    7.065   9.678   9.322  10.310   9.295   9.651  11.444   9.913  10.341   9.783
    8.420   8.086   8.383   8.387   8.845  10.009   8.922   9.749   8.865   8.207
    6.961   7.465   7.892   8.410   8.421  11.446   8.022   9.244  10.215  10.118
    8.130   6.159   6.939   8.049   7.920  10.496   8.759   9.094   9.271   9.980
    4.795   5.657   4.386   5.530   7.347   7.088   7.260   8.216   8.319   9.157

    1.650   8.185
    9.946  10.630   9.803  10.818   9.454  10.903  10.567  11.484  10.669  10.170
    9.127   9.538  10.512   8.300  10.622   9.821  11.427  11.688  13.203  10.901
    9.040  10.550   9.471   8.854  10.374   9.630  11.839  11.250   9.302  11.779
    7.661   9.145  10.246   8.780   9.285  10.494  11.566   9.973   9.687   9.722
    8.833   8.838   9.291   9.192   8.921  10.609  10.350  11.866  12.459   8.834
    7.145   9.706   9.739  10.041   9.495   9.478  11.193  10.270  10.453   9.951
    8.381   8.098   8.574   8.598   9.511  10.036   9.011   9.944   8.976   7.981
    6.376   7.525   7.627   8.319   8.889  12.014   8.100   8.671  10.682   9.960
    8.027   6.631   7.349   8.077   8.109  10.374   9.129   8.397   9.462   9.913
    5.118   5.910   4.485   5.191   7.333   6.717   7.447   8.014   8.178   9.417

    1.700   8.354
    9.955  10.803  10.179  10.515   9.498  10.679  10.679  11.422  10.600  10.031
    9.012  10.136  11.219   8.225  11.184   9.655  11.843  11.758  13.233  10.593
    8.818  10.833   9.848   8.464  10.701   9.873  11.698  11.006   9.019  11.481
    7.941   9.144  10.384   8.893   9.073  10.638  11.300   9.882   9.516   9.764
    8.804   8.847   8.902   9.289   8.472  10.803  10.275  11.708  12.029   9.054
    7.490   9.735   9.723   9.797   9.430   9.644  11.132  10.236  10.818   9.723
    8.553   8.139   8.608   8.578   9.640  10.174   9.133  10.073   9.136   8.330
    6.034   7.737   7.733   8.356   8.811  11.770   8.449   8.379  10.326   9.903
    7.785   6.563   7.424   7.729   8.095  10.063   9.043   8.261   9.627   9.934
    4.851   5.825   5.207   5.266   7.288   7.062   7.537   8.171   8.124   9.196

    1.750   8.650
    9.764  10.897  10.422  10.388   9.500  10.740  10.526  11.325  10.721  10.779