
This full-field turbulence file was generated by TurbSim (v1.40, 12-Sep-2008) on 21-May-2021 at 12:51:30.

 | u-comp |  Y  x  Z  | Grid Resolution (Y x Z) | Time-step | Hub Elev | Mean U |
            10    10     15.556     15.556          0.050      80.00     15.00

 Z Coordinates (m):
  -70.000 -54.444 -38.889 -23.333  -7.778   7.778  23.333  38.889  54.444  70.000

 Y Coordinates (m):
  -70.000 -54.444 -38.889 -23.333  -7.778   7.778  23.333  38.889  54.444  70.000

    0.000  14.691
   17.591  14.846  16.811  16.847  16.472  19.606  12.641  15.656  13.601  14.257
   15.574  16.583  12.941  16.769  17.933  14.811  13.865  15.632  15.869  15.874
   16.950  11.971  14.041  17.246  16.884  13.634  13.757  14.249  13.276  18.218
   17.228  15.880  14.402  12.911  14.090  13.265  13.888  13.822  15.732  16.620
   14.834  13.486  13.604  11.505  13.211  15.377  11.333  13.176  13.095  11.115
   14.255  13.969  11.398  11.187  13.837  13.414  10.866  13.393  11.471   9.994
   15.120  11.046  13.172  11.859  12.332  11.589  11.633  11.150  10.486  13.696
    8.498   8.375  12.199  11.385   4.511   6.580   7.243  10.261   8.543   7.763
    8.063   9.775   7.709   5.260   2.336   5.012   6.508  11.305  10.037   7.346
    5.440   4.835   5.256   4.254   3.043   5.721   2.895   5.493   7.455   5.588

    0.050  15.379
   17.408  13.949  17.334  17.771  17.001  19.606  12.450  14.995  12.666  14.640
   14.835  16.377  13.311  16.430  18.104  15.338  14.455  16.111  16.037  14.941
   16.840  12.022  13.532  16.662  16.628  13.567  13.853  14.349  13.893  18.520
   17.498  15.804  14.706  14.093  13.916  13.938  14.531  14.400  15.907  15.566
   15.390  14.202  13.845  11.648  13.917  15.529  11.098  13.911  12.548  11.447
   14.647  14.431  11.502  11.581  13.189  13.010  12.564  13.265  11.864  10.344
   15.361  11.304  13.771  10.375  12.225  12.326  12.170  10.813  11.152  14.070
    8.585   7.799  11.870  11.589   4.944   6.712   7.411   9.584   8.433   8.551
    8.231   9.746   7.105   5.342   1.906   5.189   6.217  11.120  10.310   6.775
    5.853   5.310   4.980   4.269   2.976   5.210   2.664   4.973   7.149   6.088

    0.100  14.874
   17.808  13.972  17.730  17.431  17.225  18.819  12.419  15.320  13.380  13.330
   14.834  17.002  12.673  15.575  18.854  14.317  14.904  16.554  16.707  15.249
   16.432  11.141  14.268  17.632  16.790  13.661  14.227  13.465  14.739  19.347
   16.444  15.104  15.427  13.979  13.746  13.384  14.255  15.303  15.994  16.241
   15.134  14.839  13.379  11.975  14.323  15.475  10.876  14.142  12.059  11.230
   14.960  13.936  11.856  11.680  14.043  13.846  12.848  13.827  11.983  11.534
   15.699  11.192  13.432   9.186  11.486  13.289  12.985  11.529  12.000  13.874
    7.627   9.366  11.788  11.304   5.636   6.638   7.235   9.676   8.908   8.315
    7.857  10.770   7.976   5.672   1.990   4.620   6.136  11.180  10.338   7.472
    5.531   5.500   4.379   3.379   2.288   4.263   2.794   4.631   7.555   6.170

    0.150  15.237
   17.870  14.401  18.039  17.590  16.907  18.657  12.779  15.119  13.856  13.991
   14.320  15.782  12.952  15.268  19.531  14.309  15.398  17.195  16.961  14.644
   16.110  11.855  14.073  17.608  17.099  13.869  15.211  13.547  14.981  19.681
   16.786  15.240  14.785  14.759  14.094  12.849  14.950  14.999  15.518  15.978
   14.827  15.135  12.459  11.520  14.485  14.882  10.741  14.095  11.624  11.023
   15.228  13.932  11.194  11.439  14.434  13.989  13.217  13.506  11.540  11.979
   15.535  10.363  13.265  10.013  11.210  13.549  12.212  12.338  11.699  13.966
    8.100  10.258  11.633  11.075   5.143   7.111   7.150   9.826   9.148   8.416
    7.982  10.166   7.919   5.268   2.857   4.728   6.075  11.828  10.072   7.435
    5.848   6.055   4.158   3.022   1.554   5.223   3.444   4.836   8.160   6.360

    0.200  15.879
   18.013  14.560  17.930  18.926  17.480  17.774  12.342  14.642  13.592  15.440
   14.280  16.925  13.766  14.592  18.819  14.862  16.414  17.052  16.783  13.999
   17.010  12.065  14.081  17.464  16.029  15.156  15.288  13.229  15.484  19.567
   17.296  15.492  14.436  13.670  13.508  13.503  15.312  13.817  15.066  16.469
   15.765  15.529  12.585  10.968  15.801  15.649  10.683  14.958  12.617  11.096
   15.551  15.606  11.244  11.054  14.717  12.971  12.883  13.254  10.985  11.830
   15.056   9.999  12.879  10.809  10.680  12.746  11.357  11.874  11.066  12.896
    7.765   9.538  11.207  11.534   3.534   7.133   8.065  10.311   8.740   8.119
    9.702   9.910   7.496   4.331   2.900   4.771   5.481  12.472   9.855   7.341
    5.011   5.879   4.456   2.570   1.186   4.785   2.575   4.713   7.735   5.180

    0.250  15.546
   17.881  14.385  17.209  19.658  18.090  18.750  12.581  15.046  13.906  16.400
   13.871  17.295  14.891  14.159  17.941  15.742  17.303  17.382  17.257  13.590
   17.387  13.532  14.748  17.060  15.879  14.679  15.428  13.637  14.339  19.733
   15.971  16.238  14.483  13.456  13.999  12.992  15.059  14.224  15.595  15.950
   14.442  14.929  11.773  10.813  15.588  15.514   9.266  14.828  12.982  10.818
   14.925  15.586  11.969  11.247  14.098  12.291  13.047  12.764  11.513  12.063
   15.078   9.857  12.610  10.321  11.670  11.430  10.199  12.404  10.617  13.622
    7.353   8.705  11.663  10.967   4.240   7.021   7.844  11.060   8.718   8.482
    9.086  10.931   7.171   4.471   2.347   4.412   6.036  12.597   8.355   7.356
    4.893   6.268   5.046   2.258   0.751   5.290   3.106   5.227   7.639   5.653

    0.300  15.437
   18.261  14.974  16.560  18.879  19.658  18.526  13.128  15.213  13.525  15.370
   13.602  16.583  15.068  14.311  17.913  15.684  17.275  16.563  17.125  13.016
   17.455  13.592  15.047  16.175  15.887  14.557  15.277  14.435  14.765  19.845
   16.248  16.537  14.076  13.345  14.337  13.790  14.126  14.930  15.529  15.936
   14.847  14.365  12.889  10.901  15.083  15.920   9.674  13.444  13.372  10.994
   15.634  14.495  11.909  10.279  14.435  12.945  13.216  12.406  11.343  12.636
   14.614  11.288  12.175  10.431  11.726  10.985  10.117  12.136  10.675  13.848
    6.542   8.116  11.070   9.380   4.325   7.219   7.181  11.192   8.599   9.612
    9.780  10.331   7.734   3.794   3.044   5.637   5.917  12.261   8.212   7.948
    4.993   6.290   5.641   2.218   0.649   5.480   2.979   4.788   7.228   6.020

    0.350  15.410
   17.638  15.266  16.964  19.033  20.372  18.251  12.908  15.456  13.993  14.887
   12.468  16.176  14.649  13.968  17.232  16.076  16.940  16.056  16.510  13.874
   16.802  13.864  15.866  16.687  15.710  14.807  14.750  14.341  15.656  19.951
   16.331  16.206  13.412  13.254  14.236  13.566  14.901  14.633  15.752  17.134
   14.276  14.603  13.622  11.623  15.691  15.900  10.461  13.237  13.043  10.726
   15.071  14.934  11.454  11.048  14.975  12.884  13.461  12.532  11.751  12.203
   14.272  10.677  12.079  10.061  11.591  11.750   9.773  12.186  11.101  13.469
    7.177   8.469  10.366   9.782   4.776   9.059   7.468  11.394   8.788  10.304
   10.065  10.037   8.030   3.963   2.260   5.157   5.992  12.694   6.915   7.874
    4.547   6.471   5.797   1.641   0.740   6.212   3.091   4.627   7.434   6.166

    0.400  15.401
   17.801  14.966  16.535  18.611  20.507  18.380  14.139  14.950  14.058  13.931
   12.670  16.902  12.644  14.790  17.621  15.399  16.967  15.531  16.990  14.392
   16.854  13.948  15.789  16.862  16.012  14.941  14.978  14.244  15.894  18.666
   15.406  16.307  13.764  13.756  14.533  14.644  14.638  14.689  15.930  17.259
   14.172  15.679  13.689  11.469  15.026  15.754  11.035  12.742  14.059  11.118
   15.783  15.701  11.685  11.285  13.273  12.154  12.683  12.738  11.176  11.732
   13.586   9.788  12.461  10.159  11.460  12.047   9.732  12.447  11.429  12.045
    7.431   8.374   9.846   8.729   5.570   8.907   6.475  11.483   9.366   9.715
   10.152  10.000   8.665   4.627   2.777   4.506   6.177  12.777   7.484   8.013
    4.808   5.612   5.755   1.878   1.078   6.728   4.233   3.884   7.182   6.385

    0.450  15.374
   17.704  14.821  16.085  18.702  19.132  18.929  14.627  14.387  13.269  13.536
   12.400  16.671  12.744  15.036  17.758  14.818  16.711  15.731  17.542  14.197
   17.027  13.891  15.585  16.550  16.119  14.149  15.014  14.751  16.175  19.276
   15.451  17.230  14.362  14.312  14.412  15.477  16.105  14.160  16.744  17.421
   13.847  15.645  13.809  10.316  15.558  15.761  12.333  12.452  13.359  11.150
   15.929  14.974  10.829  11.188  13.658  12.005  13.379  13.393  11.085  11.594
   13.404  10.060  13.112  10.372  11.361  11.404   9.097  12.814  10.930  12.532
    8.327   8.678  10.757   8.583   4.728   8.441   6.358  11.873   9.176  10.976
    9.520  10.182   9.419   5.196   2.647   5.213   6.141  12.840   8.126   8.030
    5.037   4.895   4.890   1.976   1.123   5.340   3.910   3.127   6.822   6.244

    0.500  15.758
   17.646  14.349  15.477  19.633  18.584  19.907  14.928  13.996  13.271  13.563
   12.070  16.505  13.451  14.880  17.972  14.412  17.421  15.768  18.058  14.311
   16.802  13.587  15.616  17.373  16.302  14.882  15.029  15.782  16.323  19.299
   15.705  17.268  14.493  14.773  14.809  14.598  16.451  15.258  16.444  16.843
   13.904  15.960  14.052  10.283  15.341  17.226  11.439  11.841  13.466  10.589
   16.071  15.139  10.141  11.679  14.027  12.380  13.297  13.026  11.271  10.967
   13.655  10.538  13.031  11.094  11.355  11.065   9.706  12.063  10.810  13.301
    8.265   8.314  10.836   9.538   5.191   8.635   6.347  12.381   8.370  10.949
    9.005  10.295   9.129   5.458   2.262   5.864   6.127  13.135   8.664   7.870
    4.237   5.344   4.750   1.648   1.328   5.357   3.033   3.182   6.550   6.972

    0.550  16.024
   17.061  14.532  15.324  20.150  18.543  19.310  14.879  14.962  13.597  13.344
   12.067  17.003  13.875  15.616  17.777  15.518  17.234  15.832  17.424  14.519
   17.356  12.950  16.295  17.662  17.109  15.166  14.440  16.611  16.571  17.843
   15.658  16.844  16.295  14.691  15.053  14.741  16.687  15.709  16.541  16.377
   13.450  17.170  14.762  10.388  15.576  17.365  12.569  11.670  14.050  10.910
   15.282  15.159  10.893  13.139  14.426  13.388  13.796  12.855  11.050  11.121
   13.900  10.435  12.300  11.198  11.806  10.806   9.684  10.563  11.679  13.357
    7.415   8.995  11.134   9.085   6.121   9.617   6.440  10.892   7.972  10.165
    8.719   9.824   8.883   4.837   3.033   5.004   7.000  12.891   9.474   7.128
    5.037   5.206   5.583   1.427   1.850   4.865   3.234   2.204   5.831   7.272

    0.600  16.030
   17.127  13.763  17.243  19.689  19.025  19.790  15.311  15.083  13.177  13.051
   12.626  17.411  13.889  16.064  18.100  15.180  17.609  16.175  16.577  14.383
   17.399  13.027  16.142  17.514  16.884  14.811  15.284  16.627  16.449  18.182
   15.949  16.428  15.590  14.474  15.134  14.165  17.235  16.507  16.540  16.435
   14.423  17.415  14.071  11.028  16.039  17.319  13.734  11.158  13.133  11.277
   15.065  16.064  10.734  13.514  15.056  12.851  13.914  12.779  10.980  10.943
   14.098  10.813  11.610  10.282  12.148  10.775   9.278  11.331  12.041  13.693
    8.225   9.195  10.407   8.333   5.858   9.151   7.298  10.991   8.680   9.583
    9.685  10.808   9.982   5.170   3.349   5.104   6.176  13.005   9.492   5.520
    4.547   4.862   5.315   1.688   1.405   4.683   2.699   2.420   5.974   7.934

    0.650  16.522
   16.804  13.596  17.043  20.718  19.392  18.936  14.661  14.226  12.989  13.225
   12.132  17.912  13.926  16.309  18.606  14.354  18.368  15.898  16.197  14.558
   16.374  13.231  15.774  17.700  16.683  15.172  15.113  16.820  16.930  17.765
   15.831  17.601  16.170  14.503  14.650  14.329  17.381  16.341  16.663  15.713
   14.695  17.813  14.023  11.886  16.694  16.719  12.614  11.582  12.467  12.090
   15.376  15.788  12.159  12.310  14.694  11.580  14.027  13.890  11.079  10.586
   13.638  11.333  11.184  10.665  12.802  10.969   8.903  11.308  11.706  12.781
    8.130   8.854  10.114   7.231   5.790   9.641   7.071  11.969   9.679   9.480
    8.971  10.438   9.990   5.879   3.770   5.355   5.353  11.613   8.759   6.284
    4.675   4.063   5.198   1.384   1.438   4.987   3.628   2.239   6.310   7.035

    0.700  16.185
   17.797  13.536  17.182  19.859  19.241  18.641  14.677  14.118  13.120  13.146
   11.934  16.934  13.454  15.957  18.758  14.671  18.042  15.804  16.086  14.759
   17.431  13.036  15.596  17.001  16.611  15.656  15.554  16.302  15.951  18.770
   15.101  17.790  17.001  13.440  15.067  15.044  16.385  15.331  16.829  16.019
   14.226  17.856  13.391  11.731  16.384  16.605  12.410  10.673  12.405  12.159
   15.603  15.656  12.707  12.634  14.446  12.435  14.657  14.160  11.043  10.499
   13.209  11.337  11.336  10.512  12.259  10.563   9.501  10.200  11.629  13.144
    8.671   9.142  10.442   6.749   5.601  10.004   6.834  12.636   9.600   9.580
    9.087  10.768   9.784   5.615   4.167   4.979   6.143  11.761   8.241   7.263
    6.192   4.830   4.695   1.964   1.111   5.242   3.723   2.702   7.003   7.744

    0.750  16.381
   18.586  12.574  16.790  19.860  20.060  18.562  15.547  14.938  12.210  12.664
   11.522  16.577  13.000  16.350  18.586  14.179  17.191  15.684  15.447  14.517
   17.416  13.798  15.597  16.478  16.635  14.826  16.118  16.643  15.305  18.466
   13.970  17.223  16.994  13.416  15.047  15.794  16.015  15.454  16.258  16.587
   14.794  18.177  13.079  11.493  15.643  16.786  12.748  11.547  13.738  12.645
   15.715  14.798  12.662  13.456  14.060  12.446  13.992  14.243  11.825  10.402
   13.104  10.778  10.942  11.252  11.076  11.394   9.411  10.013  11.722  13.242
    8.011   9.430   9.992   6.757   6.248   9.757   7.857  13.017   9.430   9.281
   10.094  10.136   9.566   5.399   4.515   5.005   6.554  11.878   8.057   7.519
    6.623   4.731   4.068   1.269   1.071   4.938   4.765   1.983   8.193   6.605

    0.800  16.061
   19.251  12.494  16.489  19.452  19.994  17.990  15.427  15.765  12.527  12.691
   10.725  17.421  12.881  16.690  17.167  13.816  16.257  15.603  15.755  14.899
   17.656  13.705  15.323  16.890  17.001  14.690  16.155  15.466  15.637  18.024
   14.514  17.419  16.474  13.782  15.260  15.067  15.707  14.841  16.395  17.133
   14.393  19.048  12.876  11.796  15.192  16.692  12.750  11.723  13.439  11.467
   16.047  14.782  11.474  13.249  14.409  11.429  13.636  14.362  12.014  10.491
   14.549  10.888  11.760  11.831  10.691  10.652   9.810  10.928  11.341  13.508
    8.279   9.335   9.690   7.111   6.455   9.702   7.877  12.708   8.967   9.793
   11.086  10.062   9.083   5.475   4.511   4.613   6.606  11.786   8.921   8.301
    6.470   4.878   4.435   1.363   0.408   5.074   3.177   2.405   7.396   6.569

    0.850  14.599
   18.698  12.438  15.399  18.853  20.575  18.229  15.114  17.111  12.466  13.078
   11.121  17.118  13.200  17.134  17.520  13.448  16.438  14.965  16.087  14.218
   17.310  12.876  14.733  17.397  16.741  14.466  16.135  16.568  16.673  17.526
   14.866  17.349  16.246  15.341  15.761  14.845  15.876  14.138  17.393  17.277
   14.129  19.791  12.234  12.312  15.969  16.519  13.470  12.451  13.119  11.656
   16.250  14.719  10.743  13.368  15.854  11.255  14.404  14.244  11.534  10.836
   14.261  10.962  12.734  11.636  11.055  10.666  10.548  11.188  11.625  13.777
    8.763  10.098  10.472   7.354   5.992   9.229   7.520  12.964   9.165   9.132
   11.192   9.857   9.210   5.664   3.646   4.472   6.613  11.622   8.915   8.776
    6.467   4.956   4.667   1.450  -0.134   4.696   3.025   2.438   7.127   6.033

    0.900  14.610
   19.564  12.032  14.674  18.725  20.042  18.747  14.930  17.239  13.298  14.103
   11.610  16.709  13.197  17.249  17.706  13.854  16.135  14.621  15.299  14.259
   17.305  12.533  13.112  18.006  17.167  13.672  16.650  17.061  16.839  18.468
   14.726  16.915  14.988  15.754  15.580  13.333  15.233  13.614  17.686  17.647
   14.862  19.452  12.912  13.277  15.638  16.387  12.758  12.936  12.662  12.348
   16.254  14.363  10.391  14.064  15.638  11.946  14.296  13.542  12.296  10.737
   13.742  10.489  12.353  10.788  11.004  10.930  10.621  11.465  11.831  12.792
    8.386  10.169  11.953   7.174   6.440   9.925   8.156  11.880   9.270   9.738
    9.479   9.994   7.993   5.669   3.403   4.508   6.009  11.052   8.981   9.318
    5.951   5.674   5.587   1.932  -0.495   2.986   2.946   2.684   7.597   6.323

    0.950  14.206
   20.114  11.947  14.716  19.098  20.049  18.895  15.225  17.121  13.634  14.331
   12.124  16.336  13.420  16.405  16.792  13.028  16.425  15.425  15.346  14.811
   17.686  12.242  14.058  17.712  17.487  13.957  15.959  16.392  16.637  19.003
   14.981  16.288  15.388  14.275  15.232  12.785  14.168  13.786  17.555  17.231
   14.861  19.017  13.672  13.042  15.618  16.011  12.134  13.269  11.839  12.909
   16.783  14.625  10.236  13.514  15.886  12.083  14.632  13.611  11.388  10.794
   13.718   9.305  11.155  11.223  11.196  10.628  11.098  11.284  11.643  12.729
    8.528  10.184  12.692   7.194   5.885  10.647   8.170  11.840   9.741  10.349
    8.280   9.797   6.908   4.870   3.530   5.298   4.826  11.515   9.239   9.472
    5.860   5.137   6.190   1.496  -0.530   3.488   3.017   2.597   7.059   6.384

    1.000  14.074
   20.308  12.586  14.370  19.582  19.508  19.470  15.508  16.955  13.041  14.311
   12.904  15.660  12.618  16.443  17.008  13.289  16.302  14.012  15.272  14.567
   17.237  11.846  14.239  17.807  16.843  13.793  15.116  15.858  16.314  18.275
   16.198  15.780  16.553  14.663  15.609  12.788  15.021  13.539  17.371  16.551
   15.319  19.727  14.060  14.139  15.523  17.153  13.020  13.156  11.735  12.974
   16.518  14.952  10.975  12.443  16.346  12.093  15.418  13.012  11.163  11.416
   13.861  10.673  12.013  10.571  11.611  10.112  11.155  11.882  11.713  12.913
    8.296  10.268  13.082   6.450   5.687  10.001   7.351  12.373   8.779  10.118
    7.729   9.147   7.308   5.461   3.207   5.716   5.547  11.367  10.032   9.475
    5.236   6.281   6.901   1.394  -0.550   2.954   3.222   3.055   7.156   6.843

    1.050  13.766
   20.477  12.361  14.394  18.549  18.822  19.535  14.855  16.399  12.949  13.367
   12.809  15.430  12.785  17.822  17.140  14.179  16.135  14.013  14.575  15.285
   16.671  12.241  14.825  18.200  15.991  13.878  14.897  15.300  15.918  18.603
   15.445  15.177  16.737  14.645  15.748  12.530  15.242  14.194  16.609  16.331
   15.435  18.940  14.999  14.834  14.943  16.832  12.957  13.880  11.857  12.773
   16.804  14.743  10.218  11.984  14.695  12.218  15.240  12.772  11.934  11.286
   13.468   9.953  11.427  10.845  10.848   9.782  11.246  11.636  10.992  13.603
    8.940   9.824  13.076   7.644   6.691   9.794   7.738  12.683   9.941   9.575
    7.619   8.957   7.261   6.100   2.639   6.239   6.094  11.259  10.647   9.266
    5.699   5.578   6.180   1.243  -1.028   2.446   4.074   3.699   7.601   6.913

    1.100  14.105
   19.318  11.998  14.820  18.177  18.906  20.868  14.496  16.858  13.367  12.929
   13.712  15.498  13.979  17.276  16.918  13.613  15.582  14.253  13.842  15.539
   17.032  11.774  14.250  18.594  16.421  13.347  13.902  15.210  16.592  18.640
   15.236  14.638  17.120  14.745  14.293  12.795  15.454  15.208  15.983  16.145
   15.778  18.911  15.100  13.787  14.623  16.215  12.133  13.742  11.162  13.231
   17.290  14.584  10.776  12.253  14.427  12.158  14.083  13.095  11.965  11.549
   13.163  10.114  12.417  12.009  11.239   9.758  10.685  12.226  11.441  13.891
    8.009   9.644  11.698   8.018   5.613   9.635   7.689  12.517  10.626   9.058
    7.959   8.839   7.185   5.590   1.276   5.502   6.001  11.333  11.285   8.825
    5.286   5.720   6.441   1.361  -0.253   1.261   4.038   3.020   7.605   6.559

    1.150  14.437
   19.380  12.318  13.750  18.035  19.020  21.162  14.718  17.177  14.004  13.755
   13.318  15.389  14.580  16.136  17.004  14.349  15.829  13.777  14.618  15.814
   16.402  12.061  15.291  19.788  16.985  13.508  13.899  15.377  16.506  18.804
   15.237  14.964  16.646  14.805  14.151  12.959  15.963  15.428  16.215  17.168
   15.685  18.574  14.492  15.187  15.051  15.775  11.588  13.708  11.159  13.938
   17.375  14.802  10.965  12.262  14.710  12.894  15.020  13.025  11.719  11.485
   12.618  11.245  13.310  11.879  10.135   9.927  10.561  12.042  11.273  14.229
    8.269   9.640  10.837   8.442   5.128   9.731   7.165  12.571  10.086   9.111
    8.339   7.764   7.323   5.921   2.168   5.860   5.375  10.664  11.155   8.419
    4.605   5.939   6.689   1.107  -0.987   1.306   4.250   3.934   7.681   6.320

    1.200  13.258
   19.112  11.824  12.659  18.247  19.339  21.977  13.391  18.356  14.113  14.152
   13.299  15.558  14.316  16.242  17.237  14.815  16.544  14.337  15.666  15.044
   16.574  12.038  16.971  19.744  17.289  14.023  13.222  15.389  16.972  19.861
   15.350  14.732  16.186  15.183  13.859  13.118  16.518  15.476  15.334  17.605
   15.724  18.476  14.483  14.947  14.873  15.731  11.968  13.820  11.910  13.741
   17.946  14.942  10.213  12.433  14.385  13.082  14.997  12.678  12.156  10.837
   12.934  10.800  12.837  10.449  10.203  10.943  10.954  12.313  10.708  14.217
    7.620   9.229  10.852   8.571   4.476   9.424   7.479  13.059   9.947   9.497
    8.884   8.280   7.882   5.736   2.517   5.960   5.403  10.777  10.462   7.969
    4.549   5.991   6.237   0.525  -1.019   0.555   4.885   3.750   8.430   5.616

    1.250  13.747
   19.118  13.075  13.359  17.800  19.201  22.770  13.418  18.582  14.461  14.115
   12.924  16.419  14.533  15.907  17.429  14.760  16.892  14.788  14.763  14.021
   16.881  11.889  16.085  19.673  16.916  14.521  13.368  15.444  17.305  20.161
   14.372  14.680  15.844  16.026  13.739  13.196  17.068  15.098  14.784  17.439
   15.723  18.476  14.180  14.349  15.511  16.213  12.371  12.414  12.787  14.410
   17.472  16.168   9.376  12.135  14.217  13.201  15.159  12.391  12.490  10.437
   12.454  11.223  12.823  11.493  10.143  11.097  10.896  11.858  11.081  14.352
    8.343   8.707  11.292   8.029   4.714   9.790   7.869  13.280   9.299  10.133
    9.192   8.155   7.949   5.562   2.446   5.840   5.923  10.075   9.713   7.930
    4.987   5.709   6.713   0.981  -0.282   0.878   4.297   4.469   9.177   5.594

    1.300  14.150
   18.860  14.024  13.241  17.130  19.463  22.049  13.267  18.669  14.927  13.992
   12.758  16.484  15.398  16.414  17.112  14.083  17.080  15.711  14.413  14.445
   16.394  11.547  16.100  20.608  17.626  14.459  13.341  15.876  17.092  19.697
   14.613  14.516  15.305  15.880  13.368  13.130  17.402  14.308  15.037  16.816
   15.851  18.609  14.223  13.710  16.096  16.258  11.690  12.589  12.055  15.366
   16.304  16.070   9.728  11.388  13.766  11.832  16.213  13.078  12.079  11.224
   12.347  11.349  12.787  11.306  10.030  11.040  10.657  13.094  10.973  15.498
    8.705   8.462  11.279   8.898   5.063   8.894   7.732  13.718   9.789  10.599
    8.888   8.004   8.401   6.095   2.907   5.580   5.429   9.660   9.285   7.592
    4.239   4.930   6.312   1.160  -0.041   1.598   3.989   3.088   8.077   5.243

    1.350  15.599
   19.528  13.183  12.916  17.586  20.039  22.128  13.295  18.493  15.040  14.454
   14.293  16.674  14.853  16.228  18.209  14.879  17.227  15.000  13.466  14.658
   16.770  11.616  16.861  20.356  16.704  14.562  13.337  16.078  17.746  19.280
   15.012  14.185  15.794  15.452  13.547  12.691  17.469  13.911  13.985  16.337
   15.689  17.829  13.964  14.089  16.021  15.785  11.456  12.974  11.724  15.679
   17.214  16.694   9.308  11.757  14.685  11.620  16.304  13.705  11.700  11.489
   12.950  10.800  12.908  11.335  10.518  11.940  10.543  13.279  10.609  14.706
    9.373   9.257  11.090   8.634   5.934   8.553   8.535  14.080  10.179  10.157
    9.667   7.764   8.689   5.862   3.943   5.492   5.104   9.977   9.679   8.231
    3.748   5.480   5.517   1.563  -0.129   1.731   2.841   2.248   7.890   6.367

    1.400  15.259
   18.692  13.843  13.983  19.211  20.130  22.500  12.960  18.447  15.272  14.414
   14.431  15.614  15.264  15.643  18.002  15.008  17.272  15.344  13.286  14.886
   16.696  11.262  17.363  20.711  16.696  14.749  12.550  15.869  17.424  19.409
   13.896  14.134  15.616  15.448  14.246  12.625  16.346  13.936  14.562  15.920
   16.101  17.888  14.817  14.553  16.589  15.971  12.087  13.744  10.876  15.013
   16.622  16.063   9.466  12.596  15.472  11.491  17.011  14.303  11.117  11.458
   13.372   9.736  12.700  10.754  10.780  11.735  10.540  12.887  10.258  14.540
    9.603   9.319  10.985   8.446   6.396   7.826   8.531  13.569  11.079  10.599
    9.110   8.899   9.482   6.229   2.771   5.420   5.338   9.374   9.774   8.315
    4.552   4.753   4.617   1.786   0.247   1.997   2.186   2.796   7.195   6.519

    1.450  15.437
   17.607  13.429  13.739  18.861  20.131  21.835  13.143  19.470  15.403  15.828
   13.906  15.579  15.385  15.503  17.530  14.532  16.598  15.112  12.921  14.269
   16.126  11.695  17.413  21.175  17.561  15.602  12.554  16.029  18.146  20.784
   13.057  14.323  16.088  14.841  15.097  12.530  16.524  14.479  15.754  15.380
   16.071  17.916  14.513  14.351  17.367  15.614  11.906  14.192  11.835  15.327
   18.206  15.614   9.906  12.393  14.966  11.214  16.610  14.478  10.789  11.054
   13.612   9.456  12.639  10.609  10.497  11.930  11.591  12.742  11.427  14.158
   10.195   9.077  10.896   7.878   6.129   7.875   8.961  14.311  11.651  10.339
    9.599   9.392   9.969   6.108   2.470   6.586   5.733  10.129   9.839   8.622
    4.850   5.537   5.240   1.848  -0.132   0.614   2.098   3.686   7.093   6.471

    1.500  15.292
   18.411  13.289  13.053  18.603  20.009  20.641  13.661  18.957  15.574  15.334
   14.624  15.467  16.272  15.986  18.489  14.811  16.385  17.087  13.475  13.939
   16.400  12.214  16.894  22.094  17.665  14.381  11.945  16.665  18.034  20.381
   12.452  15.104  15.916  15.693  15.399  13.454  16.914  14.306  15.874  15.685
   16.133  17.552  13.843  15.072  16.818  17.047  11.955  14.687  12.427  14.615
   17.661  14.983   9.274  11.878  14.753  11.163  16.683  14.685  11.688  11.113
   13.512  10.257  14.007  11.542  10.034  11.488  10.886  12.645  11.576  14.394
    9.536   9.536  11.154   8.314   6.014   8.391   8.886  13.661  11.687  10.786
    9.345   9.615   8.682   7.128   2.198   6.874   6.101  10.678  10.144   8.725
    4.481   6.012   5.697   2.845  -0.249   0.104   1.868   4.188   6.941   6.758

    1.550  14.767
   17.698  13.476  13.178  17.809  19.974  20.686  13.754  19.585  15.717  14.348
   14.162  15.155  17.855  15.840  18.898  16.190  16.937  17.272  14.356  14.070
   16.341  12.800  17.583  21.126  17.467  14.158  11.937  16.214  17.504  20.492
   12.452  15.098  15.244  14.579  14.994  12.969  16.247  14.967  14.870  16.565
   16.097  17.067  14.305  15.305  17.556  17.053  12.396  14.621  13.324  14.091
   17.084  15.690   9.544  11.903  14.731  12.036  16.444  14.752  12.328  11.167
   13.138  11.292  13.321  11.547  10.025  11.228  11.570  11.686  11.274  13.967
    9.904   8.915  11.698   8.486   5.673   9.396   9.783  12.734  11.289  10.934
    9.995   9.601   9.019   7.279   2.506   5.827   6.116   9.405  10.804   8.524
    4.775   6.505   6.294   2.803  -0.159   1.524   2.479   3.474   6.968   6.349

    1.600  14.962
   18.378  13.526  13.575  17.654  20.037  20.188  13.703  20.383  15.725  14.430
   14.612  15.573  18.437  15.686  18.515  15.106  15.787  16.305  14.862  13.700
   16.264  13.847  17.547  20.926  17.350  14.392  11.839  15.682  16.800  19.430
   11.957  14.641  15.195  13.901  13.967  13.680  16.053  15.692  15.740  16.980
   15.843  17.385  15.003  15.598  17.972  16.079  12.097  14.389  13.024  13.569
   17.109  16.600   9.934  11.953  14.649  11.803  17.196  15.296  12.911  11.968
   13.888  11.770  12.849  10.681  11.425  12.324  12.359  11.244  11.414  14.313
    8.944   9.079  12.331   8.705   5.780   8.845  10.862  13.445  12.800  10.881
   10.002  10.443   8.653   6.974   3.569   5.200   6.404  10.018  11.112   9.140
    5.486   7.084   7.694   2.909   0.316   1.310   2.968   3.815   7.290   7.168

    1.650  15.482
   17.843  13.078  12.623  17.152  20.057  20.279  14.066  20.148  15.637  14.088
   15.102  15.793  18.832  14.662  18.412  14.996  15.519  16.702  14.729  14.484
   16.382  13.191  18.087  21.318  18.606  13.620  12.763  15.172  16.210  19.529
   12.701  15.053  15.219  14.292  14.570  14.954  15.960  15.288  14.962  18.257
   15.193  17.769  15.066  15.436  17.677  16.137  10.815  14.347  12.342  11.836
   17.430  16.054  10.585  12.709  14.251  11.743  17.455  15.151  13.094  12.863
   14.047  11.406  12.857  11.138  10.769  13.389  11.648  11.661  11.999  14.323
    9.340   8.879  11.590   8.142   5.307   8.014   9.797  12.643  12.938  11.593
    9.656   9.765   7.713   6.544   3.961   4.579   6.185  10.062  11.931   9.051
    5.577   6.705   7.167   2.634   0.307   1.454   2.854   3.959   7.272   7.639

    1.700  15.846
   17.382  13.023  12.542  17.419  18.971  20.767  14.373  20.564  15.230  13.878
   14.868  16.117  18.142  14.430  18.326  15.058  16.289  16.135  15.521  14.478
   16.049  12.724  17.506  20.765  18.480  14.084  12.706  14.525  16.468  18.454
   12.185  15.927  14.905  13.803  14.258  14.342  15.745  14.578  14.343  17.942
   15.285  17.438  13.908  14.476  16.661  16.321  11.712  14.929  12.122  12.548
   17.368  14.879   9.676  12.706  14.703  11.539  16.886  14.294  13.352  12.808
   13.640  11.239  12.925  11.152  11.172  13.703  11.567  11.733  11.495  13.118
    9.486   9.038  11.378   8.101   4.706   8.591   9.482  12.593  12.537  11.844
   10.092  10.049   7.768   5.693   3.572   5.033   6.858   8.876  11.973   9.143
    5.265   7.061   6.065   1.115   0.554   2.391   2.738   3.432   7.349   7.517

    1.750  15.272
   17.505  13.114  12.736  17.861  18.643  20.813  15.456  20.030  15.384  13.663