
This full-field turbulence file was generated by TurbSim (v1.40, 12-Sep-2008) on 21-May-2021 at 12:51:25.

 | u-comp |  Y  x  Z  | Grid Resolution (Y x Z) | Time-step | Hub Elev | Mean U |
            10    10     15.556     15.556          0.050      80.00      7.00

 Z Coordinates (m):
  -70.000 -54.444 -38.889 -23.333  -7.778   7.778  23.333  38.889  54.444  70.000

 Y Coordinates (m):
  -70.000 -54.444 -38.889 -23.333  -7.778   7.778  23.333  38.889  54.444  70.000

    0.000   7.322
   10.574   9.856   9.942   9.266   8.881   8.265   5.612   7.319   6.508   8.881
    8.254   8.901   4.974  11.105   9.179   7.438   8.116   8.738   6.224   6.538
    9.426   9.025   7.438   8.956   8.906   7.193   5.694   6.313   7.223   7.124
    8.274   7.658   6.505   8.347   8.055   7.956   8.089   4.684   7.031   6.425
    3.148   5.963   7.933   7.907   8.202   4.496   9.667   7.439   2.672   5.417
    5.693   5.337   8.064   8.491   4.229   6.885   7.641   6.121   6.247   4.645
    5.926   7.180  10.360   9.550   6.433   6.250   8.738   6.518   4.805   2.706
    6.064   8.708   8.683   7.519   6.072   5.211   5.939   5.386   3.478   5.399
    5.085   3.645   7.742   7.491   7.848   3.594   6.387   6.238   3.999   3.277
    1.827   5.072   5.524   9.988   4.977   5.452   5.963   3.844   4.415   2.881

    0.050   7.703
   10.434  10.256  10.076   9.040   8.475   8.570   5.813   7.359   6.971   8.801
    8.516   8.954   5.451  11.369   9.255   6.932   7.999   8.188   6.588   7.082
    8.965   9.054   7.693   8.937   9.746   7.222   5.408   6.380   7.083   7.005
    8.692   7.494   6.892   8.673   8.223   7.928   7.404   5.050   7.374   6.088
    3.259   6.151   8.062   7.610   8.249   4.399   9.387   7.062   2.458   5.824
    5.698   5.571   7.674   8.315   4.991   6.751   8.030   5.974   6.581   4.555
    5.740   6.961  10.355   9.833   6.722   6.167   9.056   6.570   5.299   2.887
    5.870   8.452   9.025   7.825   6.228   5.434   5.904   5.249   3.693   5.221
    5.176   3.490   7.391   7.375   7.552   3.386   6.413   6.445   3.672   3.209
    2.077   5.248   5.362   9.797   4.972   5.485   5.704   3.995   4.426   3.144

    0.100   7.728
   11.081  10.287   9.937   8.734   8.360   8.930   6.176   7.262   7.189   9.086
    8.784   8.651   5.791  11.593   9.541   7.145   8.097   8.129   6.484   7.005
    8.776   8.637   7.697   9.239   9.639   7.163   5.531   6.143   6.853   6.880
    8.651   7.479   6.643   8.526   8.764   8.030   7.481   4.871   7.008   6.088
    3.463   5.853   8.165   7.743   8.196   4.491   9.110   6.817   2.451   5.813
    5.758   5.627   8.142   8.559   5.226   7.027   7.837   6.303   6.829   4.954
    5.633   7.603  10.190   9.275   6.184   6.189   8.772   6.337   5.566   2.603
    6.762   8.477   8.865   8.114   5.972   5.193   5.690   5.120   3.835   5.224
    5.198   3.167   6.978   7.738   7.751   3.511   6.509   6.220   3.934   2.777
    1.853   5.320   5.151   9.864   5.258   4.970   5.386   3.590   3.979   2.798

    0.150   7.747
   11.154  10.076   9.725   8.464   7.800   8.910   6.197   7.045   6.541   9.628
    8.368   8.807   6.295  11.845   9.721   7.058   8.115   8.064   6.766   6.763
    9.141   8.190   7.742   9.161   9.280   7.112   5.717   6.390   7.141   7.126
    8.524   7.635   6.488   8.843   8.804   7.998   7.518   4.628   6.691   6.561
    3.816   5.838   8.353   8.012   8.070   4.814   8.943   6.897   2.929   5.556
    5.355   5.508   8.338   9.025   5.468   7.276   8.297   6.609   6.726   4.830
    6.003   7.253  10.455   9.000   6.058   5.759   8.349   6.026   5.856   2.943
    7.140   8.349   8.990   8.619   6.186   5.052   5.880   5.185   3.945   5.306
    5.718   3.081   6.965   7.515   7.947   3.753   6.515   6.168   3.691   3.020
    2.087   5.570   4.732   9.276   4.998   4.658   5.233   3.807   3.858   2.273

    0.200   7.831
   11.131  10.487   9.754   8.616   8.090   8.926   6.594   7.349   6.123   9.835
    7.816   9.155   6.739  11.656   9.571   6.689   8.242   8.233   6.727   6.402
    9.096   8.506   8.184   8.577   9.343   7.868   5.845   6.194   6.603   7.445
    7.958   7.539   6.919   9.048   8.316   7.546   7.334   4.279   6.953   6.626
    3.261   6.357   8.694   8.249   8.455   4.375   9.125   6.695   3.106   5.710
    5.590   5.370   8.534   8.621   5.513   7.197   8.025   6.834   6.004   4.698
    5.901   7.266  10.104   9.453   6.613   5.918   8.567   6.178   5.752   3.060
    6.678   8.163   9.099   7.923   6.195   4.706   5.922   5.629   3.777   5.375
    5.966   3.043   7.030   7.373   8.312   4.267   5.954   5.965   3.637   2.761
    1.664   5.652   4.690   9.620   5.002   5.094   5.708   3.841   3.786   2.437

    0.250   7.934
   11.416  11.005  10.150   8.716   8.323   8.926   6.726   7.236   6.083  10.162
    8.189   8.725   6.812  11.658   9.754   6.562   8.177   8.323   7.090   5.663
    9.120   8.566   7.510   8.899   9.114   8.199   5.853   6.591   6.397   7.651
    8.258   8.063   6.770   9.059   7.865   7.457   7.623   4.168   6.427   6.633
    3.226   6.143   9.057   7.909   8.772   4.815   9.170   7.267   2.951   5.813
    5.684   5.517   8.300   8.250   5.413   7.433   7.784   7.128   6.309   4.702
    5.515   7.308  10.258   8.670   6.343   6.160   8.536   6.131   6.054   2.111
    6.343   8.285   9.691   7.405   6.350   4.743   5.639   5.473   4.105   5.713
    5.555   3.124   6.656   7.165   8.275   4.280   5.817   6.585   3.654   2.679
    1.551   5.641   4.456   9.132   5.063   5.119   5.766   3.948   4.136   2.665

    0.300   8.407
   11.567  10.457  10.351   8.695   8.042   9.008   6.381   7.129   5.676  10.272
    8.265   8.452   6.381  11.117   9.809   6.085   8.196   7.952   7.277   6.226
    8.828   8.807   7.223   8.951   9.248   8.229   5.747   6.883   6.915   7.289
    8.136   8.075   7.278   8.479   8.278   7.435   7.575   4.244   6.309   6.521
    3.084   6.056   8.538   8.401   8.156   5.128   9.350   7.122   3.001   5.821
    5.351   5.213   8.233   7.983   5.455   7.401   7.720   6.830   6.666   4.392
    5.843   7.389   9.778   8.554   6.158   6.416   8.021   5.944   6.018   2.246
    6.308   8.210   9.072   7.486   6.241   5.373   5.762   5.679   4.507   5.528
    4.941   3.753   6.638   6.944   8.607   4.473   5.900   7.011   3.488   2.821
    1.582   5.965   4.670   9.220   5.020   5.004   5.556   3.824   3.843   2.744

    0.350   8.638
   11.694  10.355  10.488   8.534   8.722   9.243   6.195   7.718   5.943   9.373
    8.495   8.115   6.438  10.933   9.427   5.818   8.544   7.945   7.166   6.016
    9.004   8.780   7.118   9.127   8.840   7.685   5.991   6.658   7.391   6.837
    8.208   8.238   7.224   8.752   8.329   7.409   6.838   4.259   6.371   6.850
    3.641   6.043   8.028   8.042   8.034   5.460   9.234   7.397   3.267   6.035
    5.268   5.822   8.755   8.484   5.468   7.320   7.679   6.724   6.716   4.643
    6.128   7.507   9.511   8.872   6.344   6.257   7.689   6.535   6.113   2.305
    6.714   7.743   8.862   7.255   5.499   4.938   5.845   5.819   4.455   5.603
    5.040   3.912   6.758   7.086   8.557   4.430   5.905   7.338   3.223   3.365
    1.489   6.003   4.736   9.199   4.987   5.280   5.268   3.712   3.804   3.076

    0.400   8.211
   11.632  10.290  10.086   8.422   8.078   9.072   6.467   7.413   6.003   9.495
    8.278   8.280   6.481  10.860   9.485   6.095   8.314   7.926   6.826   6.211
    9.479   8.701   7.025   9.078   8.769   7.881   6.772   6.795   6.665   6.412
    7.762   8.373   7.737   8.736   8.285   7.242   6.745   4.687   6.514   6.799
    3.726   5.893   7.810   7.691   7.744   5.362   9.234   7.150   3.078   5.335
    5.363   5.933   8.100   8.282   5.954   7.284   7.355   6.655   6.422   4.575
    6.807   7.269   9.572   8.874   6.491   6.090   7.519   6.135   5.939   1.765
    6.806   7.462   9.110   7.068   5.271   4.927   5.906   5.862   4.729   5.632
    5.109   3.865   6.327   7.328   8.207   4.552   6.056   6.737   3.252   3.183
    1.329   6.451   4.979   9.201   5.087   5.464   5.901   3.919   3.956   2.778

    0.450   8.534
   11.944  10.231  10.115   8.405   7.767   8.746   6.598   7.410   5.973   9.526
    8.353   8.582   6.732  11.122   9.755   6.293   8.463   8.087   6.678   5.857
    9.699   8.578   6.676   9.344   9.208   7.716   7.002   6.405   7.030   6.653
    7.325   8.527   7.714   9.092   8.229   7.033   6.543   4.656   6.461   6.717
    4.000   5.761   8.271   7.944   7.237   5.487   8.668   7.264   3.397   5.166
    5.212   5.976   7.779   8.054   5.532   7.075   7.485   6.747   6.678   4.969
    6.828   7.567   9.751   9.262   6.612   5.531   7.045   5.930   5.958   2.012
    7.066   7.595   8.551   7.497   5.689   5.084   5.973   6.557   4.092   5.964
    5.133   4.009   6.038   7.595   8.155   4.419   6.103   6.400   3.178   3.141
    1.741   6.033   5.337   8.896   4.723   4.836   6.136   4.197   4.068   2.585

    0.500   8.147
   11.626   9.945   9.922   8.352   7.739   8.592   6.360   7.620   5.735   9.375
    8.552   8.662   6.752  11.171  10.051   6.175   8.339   8.061   6.578   6.003
    9.933   8.635   6.725   9.203   9.203   7.890   6.876   6.456   7.412   6.593
    6.970   8.681   7.062   9.709   7.654   7.043   6.375   4.652   6.533   6.695
    3.760   5.905   8.273   7.745   6.701   5.527   8.508   7.380   3.476   4.927
    5.949   6.313   8.208   7.726   5.581   6.750   7.734   6.912   6.732   5.580
    7.146   7.514   9.782   8.860   6.328   5.660   7.180   6.369   6.118   2.064
    7.051   7.996   8.396   7.686   5.913   5.262   6.507   6.567   3.514   5.706
    5.005   3.635   6.201   7.572   7.399   4.512   5.946   6.507   3.433   2.487
    1.283   5.789   5.535   8.773   4.978   4.519   6.508   3.636   4.072   3.059

    0.550   8.208
   11.274   9.549  10.187   7.913   7.682   8.442   6.166   7.027   6.367   9.169
    8.723   8.227   6.670  11.221  10.005   6.191   8.749   8.288   6.225   6.248
    9.662   8.894   7.124   9.239   8.947   7.571   6.287   6.350   7.015   7.015
    7.092   8.663   7.190   9.637   7.919   7.308   6.396   4.638   6.693   6.276
    4.369   6.252   8.125   7.359   6.758   5.757   8.025   7.150   3.101   5.472
    5.816   6.637   8.225   7.595   5.541   6.911   7.500   6.520   6.630   5.585
    7.394   7.687   9.453   8.874   6.590   6.151   7.189   6.338   5.820   2.013
    7.483   7.900   8.926   6.980   6.256   5.226   6.885   6.948   3.571   5.925
    5.193   3.798   5.879   7.538   7.546   4.209   5.678   6.816   3.692   2.956
    1.423   5.904   5.217   8.746   4.895   4.663   6.267   3.668   4.122   2.953

    0.600   7.746
   11.409  10.012  10.106   7.911   7.261   8.410   6.311   7.652   7.076   8.956
    8.864   8.841   6.882  11.281   9.534   6.282   8.754   8.101   6.347   6.727
    9.601   9.037   7.601   9.866   8.678   7.909   6.098   6.643   6.843   6.986
    6.966   8.733   7.003   9.930   7.901   7.181   6.589   5.160   6.424   6.197
    4.570   6.538   8.562   7.073   7.397   5.756   8.014   6.964   3.321   5.666
    5.762   6.107   8.648   8.173   5.377   6.887   7.585   6.735   7.228   5.635
    7.136   7.670   8.844   9.116   6.626   5.729   7.037   6.072   5.396   2.163
    7.425   8.035   9.217   7.075   5.685   5.360   6.936   7.126   3.751   5.817
    5.417   4.139   6.002   7.801   7.249   4.318   5.299   6.989   3.696   2.671
    1.583   6.004   4.868   8.998   5.131   4.696   6.077   3.690   3.763   2.769

    0.650   8.271
   11.020  10.170  10.352   8.124   7.237   8.421   6.316   8.278   6.860   8.625
    9.188   8.830   6.640  11.067   9.152   6.228   9.030   8.009   7.377   6.377
    9.792   9.036   7.576   9.530   8.984   7.683   5.656   7.072   6.755   6.827
    6.916   9.067   7.272  10.136   8.332   7.296   6.345   5.090   6.292   6.021
    4.153   6.158   8.320   7.653   7.764   5.914   8.524   6.805   3.405   5.530
    5.372   5.488   8.703   8.561   5.422   7.393   7.357   6.847   6.813   5.490
    7.346   7.529   9.152   9.304   6.929   6.084   7.503   6.042   5.458   2.732
    7.327   7.428   9.418   7.010   5.867   5.809   6.214   7.113   3.490   6.044
    5.264   4.774   5.731   7.719   7.335   4.548   5.536   6.525   2.691   2.495
    1.285   6.193   5.160   8.645   4.816   4.407   6.694   3.927   4.032   2.775

    0.700   8.145
   10.737   9.886  10.737   8.340   7.430   8.182   5.702   8.215   6.855   8.518
    9.048   8.731   7.000  11.103   9.078   6.163   9.257   8.394   7.104   6.113
   10.046   8.987   7.617   8.978   9.016   7.310   5.655   6.623   6.702   6.909
    6.654   9.133   7.395   9.990   8.963   7.247   6.249   4.484   6.404   6.140
    4.172   6.355   8.500   7.419   7.865   6.428   9.009   6.847   3.108   5.796
    5.027   5.911   8.522   8.140   5.442   7.613   7.479   6.924   6.271   5.612
    7.178   7.801   9.155   9.084   6.796   5.626   7.423   6.138   5.423   2.969
    7.580   7.674   9.339   7.285   6.040   5.934   6.211   6.948   3.630   6.081
    4.564   4.551   6.140   7.509   7.248   4.074   6.039   6.452   3.125   2.281
    1.690   5.653   4.949   8.961   4.776   4.369   6.481   3.855   4.154   3.252

    0.750   7.780
   10.551   9.674  11.265   8.213   7.806   7.897   5.510   7.957   6.494   8.054
    8.806   8.842   7.652  11.114   8.865   6.298   9.193   8.303   7.352   6.426
   10.303   8.746   7.934   8.983   9.309   7.310   5.715   6.571   6.345   6.877
    6.167   9.099   7.124   9.471   8.929   7.082   6.557   4.434   6.494   6.129
    4.329   6.240   8.437   7.569   8.064   5.784   8.852   6.192   3.711   5.170
    5.466   5.924   8.393   7.765   4.971   7.552   7.243   6.941   6.553   5.897
    6.924   7.830   9.118   8.886   6.180   5.941   7.323   5.857   5.231   2.935
    7.601   7.571   9.008   7.335   6.041   5.418   6.030   6.726   3.970   6.125
    4.591   4.053   6.307   7.444   7.243   4.561   6.034   6.730   3.445   2.412
    2.431   5.594   5.238   8.878   4.849   4.117   6.448   3.893   4.159   3.712

    0.800   7.254
   10.891   9.811  10.548   8.694   7.697   8.192   5.354   7.336   6.266   7.967
    8.883   8.743   8.061  11.146   8.622   6.287   8.972   7.924   7.422   6.555
   10.280   9.091   7.524   8.900   9.241   7.001   5.597   6.473   6.317   6.729
    6.323   9.224   6.494   9.384   9.046   7.407   6.687   4.631   6.638   6.409
    4.471   6.064   8.684   7.269   8.854   5.788   8.998   6.417   3.853   5.181
    6.088   5.458   8.227   8.436   5.113   7.575   6.876   7.026   6.636   5.563
    7.017   8.308   9.619   8.620   5.699   5.713   6.989   5.818   5.081   2.810
    7.517   7.427   8.764   7.355   5.849   5.427   5.728   6.816   3.846   6.595
    4.627   4.226   6.588   7.646   7.290   4.599   6.248   6.787   3.845   2.336
    2.396   5.587   5.621   8.623   4.632   4.178   7.288   4.542   4.098   3.398

    0.850   7.312
   10.514   9.942  10.803   8.767   7.839   8.518   5.450   7.508   6.526   8.066
    9.539   8.724   7.823  11.131   8.827   6.245   8.582   8.193   7.352   6.356
   10.294   8.929   6.899   8.951   8.409   7.283   5.533   6.280   6.566   6.912
    6.875   9.120   6.575   9.212   9.372   7.795   6.927   4.512   6.031   6.192
    4.332   6.210   8.802   7.315   9.023   5.363   9.010   6.963   4.054   5.341
    6.323   5.426   8.604   8.374   5.520   7.671   7.182   7.040   6.789   5.743
    6.527   8.355   9.449   8.779   5.731   5.165   6.979   5.880   4.745   3.072
    7.656   7.254   8.467   6.920   5.838   5.488   5.815   6.458   3.495   7.071
    4.699   4.547   6.705   7.279   7.335   4.603   6.314   6.298   4.071   2.054
    2.430   5.560   5.825   8.499   4.814   4.407   7.013   4.175   3.392   2.734

    0.900   7.500
   10.419  10.204  10.877   8.336   7.538   7.967   5.520   7.697   6.195   8.458
    9.159   9.120   7.793  11.458   8.902   6.713   8.639   8.043   7.759   6.114
   10.280   8.662   7.137   8.700   8.406   7.079   6.144   6.540   6.556   7.064
    7.050   9.435   6.484   9.336   9.590   7.852   6.988   4.726   6.057   6.795
    4.372   6.264   9.028   7.196   8.854   5.032   8.598   7.040   3.965   5.793
    5.996   5.315   9.277   8.249   5.584   7.862   7.337   7.286   6.801   5.538
    6.656   8.388   9.830   8.892   5.841   5.260   6.963   5.809   4.663   3.070
    7.300   7.883   8.515   7.056   5.485   5.974   6.042   6.492   3.616   6.998
    4.573   4.389   6.731   6.815   7.202   4.475   5.997   6.221   4.091   2.313
    2.314   5.326   6.130   8.443   5.096   4.170   6.442   4.058   3.191   3.675

    0.950   7.568
   10.775  10.212  10.431   8.392   7.179   7.928   5.897   7.476   6.069   8.631
    9.565   9.104   7.706  11.746   8.406   6.218   8.997   8.415   8.033   6.366
   10.503   8.507   7.248   8.858   8.014   6.873   5.921   6.155   6.387   6.867
    6.222   9.499   7.188   8.862   9.539   7.632   7.116   4.887   5.827   7.322
    3.824   6.238   8.911   6.869   8.856   5.315   8.885   7.265   3.496   5.752
    5.835   4.817   9.045   7.686   5.401   7.739   7.075   7.077   6.138   5.054
    6.140   8.863  10.209   8.734   5.694   5.401   7.133   5.361   4.433   3.294
    7.209   8.500   8.501   7.135   5.085   5.801   5.435   6.352   4.078   7.086
    4.524   4.125   6.667   6.986   7.451   4.938   5.772   5.916   3.741   2.221
    2.119   5.243   6.314   8.611   4.667   3.343   6.554   4.261   3.294   3.128

    1.000   7.752
   10.451  10.020  10.650   8.513   7.639   8.047   5.755   7.523   6.467   8.799
    9.287   9.492   7.758  11.351   8.553   6.263   8.921   7.865   8.146   5.922
   10.187   8.170   7.157   9.389   8.172   6.877   5.272   5.783   6.347   6.789
    6.655   9.286   7.542   8.417   9.444   7.458   7.585   4.864   6.030   6.992
    3.909   5.640   8.768   6.981   8.884   5.724   9.068   6.940   3.234   5.191
    5.583   4.937   9.301   7.865   5.725   7.634   6.698   6.971   6.500   5.012
    5.910   8.603  10.303   8.168   5.636   5.654   7.489   5.632   4.495   3.367
    7.172   8.918   8.565   6.631   5.394   5.485   5.269   6.034   4.105   6.780
    4.337   4.612   6.336   6.943   8.054   4.665   5.589   5.711   3.411   2.211
    2.032   5.473   6.504   8.730   5.364   3.407   6.409   4.257   3.427   3.356

    1.050   8.003
   10.427  10.237  10.393   8.856   7.470   8.073   5.979   6.902   6.323   9.002
    9.170   9.676   7.815  12.091   8.361   6.172   8.796   7.966   8.136   6.451
   10.204   7.912   7.432   9.363   8.359   6.522   4.866   5.657   6.059   7.333
    6.776   9.347   7.578   8.877   9.429   7.405   7.628   4.439   5.903   6.829
    4.172   5.585   8.685   7.057   8.686   5.319   8.815   7.291   3.257   5.687
    6.022   5.440   9.445   7.682   5.860   7.890   7.127   6.863   6.470   4.812
    6.078   8.299  10.311   7.739   5.750   5.770   7.721   5.564   4.380   3.069
    7.108   9.025   8.842   6.936   5.701   5.403   5.070   5.913   4.471   6.764
    4.054   4.211   6.402   7.288   8.000   4.126   5.299   5.869   3.113   2.155
    1.737   4.890   6.481   8.800   4.629   3.562   6.362   3.738   3.758   3.147

    1.100   8.121
   10.213  10.451  10.252   8.689   7.794   8.019   5.547   6.805   6.307   9.059
    9.176   9.242   7.691  12.137   8.096   5.989   8.950   8.014   8.268   6.804
   10.041   7.942   7.210   9.683   8.305   6.632   5.020   5.897   5.885   6.796
    6.738   9.331   7.703   8.960   9.165   6.967   7.740   4.511   5.541   6.870
    4.190   5.757   8.307   7.578   8.502   4.922   8.815   7.240   3.559   5.902
    5.753   5.667   8.630   7.677   5.697   7.837   7.464   7.135   6.205   5.549
    6.832   7.580  10.316   8.120   5.776   5.723   7.468   5.241   4.329   3.043
    7.333   9.094   8.181   7.300   5.681   5.824   5.079   6.670   4.461   6.674
    4.055   3.940   6.053   6.891   7.706   4.387   5.264   6.318   3.133   2.377
    1.984   5.398   6.114   8.627   4.822   3.547   6.579   3.915   3.695   3.078

    1.150   7.939
   10.185  10.048   9.675   8.832   7.676   8.359   5.295   7.633   6.745   9.689
    9.130   9.352   7.526  12.023   7.586   5.660   8.125   8.396   8.812   6.985
   10.394   7.870   7.175   9.251   8.517   6.545   5.116   5.875   6.729   7.460
    6.765   8.458   7.528   9.062   8.505   6.820   7.854   4.631   5.983   6.291
    4.404   6.686   8.407   7.421   8.478   4.481   8.308   6.943   3.671   6.015
    6.158   5.502   8.453   7.707   4.899   7.588   7.500   6.986   6.484   5.303
    7.619   7.269  10.027   8.276   5.463   5.646   7.349   4.889   4.387   2.844
    7.432   8.326   7.972   6.945   5.793   5.838   5.206   7.121   4.481   6.507
    4.106   3.625   6.110   6.967   7.678   4.178   5.390   6.499   3.228   2.055
    1.779   5.362   6.019   8.747   5.103   3.888   6.382   4.640   3.837   3.632

    1.200   8.473
   10.555   9.988  10.220   8.686   7.643   8.393   5.313   7.128   6.691   9.913
    9.193   8.898   7.766  12.222   8.000   5.653   8.213   8.335   8.860   7.060
   10.282   7.934   7.552   9.127   8.513   6.799   5.008   6.053   6.647   7.754
    6.663   8.344   7.390   9.309   8.468   6.875   7.628   4.723   5.819   5.814
    4.467   7.285   8.099   7.814   8.762   4.997   8.377   7.074   3.511   5.597
    6.282   5.471   8.655   7.267   5.096   7.519   7.331   6.869   6.399   5.304
    7.128   7.579  10.001   8.411   5.519   5.717   6.921   4.940   4.169   2.546
    7.446   7.923   7.862   6.554   5.548   5.889   5.388   6.978   4.787   6.553
    3.868   3.604   6.092   7.694   7.398   4.304   5.656   6.150   3.428   2.117
    1.438   5.231   6.395   8.453   5.021   3.839   5.954   4.519   3.587   3.459

    1.250   8.420
   10.128  10.055  10.630   8.763   7.973   8.511   5.307   7.003   6.729  10.343
    9.356   8.789   8.201  11.851   8.499   5.562   7.992   8.474   8.532   7.121
   10.017   8.088   7.498   9.325   8.440   7.286   4.953   6.284   6.700   7.544
    6.494   8.170   7.254   9.573   8.192   6.999   7.121   4.375   5.914   5.496
    3.952   7.142   8.422   7.506   8.590   5.036   8.481   6.893   3.633   5.575
    6.022   5.378   8.466   7.170   5.269   7.449   7.208   6.711   6.273   5.375
    6.894   7.632   9.573   8.854   5.309   5.769   6.863   5.045   3.889   2.040
    7.657   7.834   7.517   6.319   5.702   5.419   5.389   7.121   4.711   6.273
    4.020   3.365   6.042   7.812   7.452   4.729   5.687   5.758   3.307   2.100
    1.341   5.273   6.061   8.841   4.753   3.723   5.735   4.591   3.601   3.073

    1.300   8.142
   10.555  10.438  10.576   9.116   7.930   8.038   5.852   7.003   6.774  10.095
    9.168   9.064   8.206  11.580   8.196   6.364   7.973   9.233   7.939   6.882
    9.611   8.133   7.505   9.532   8.596   7.088   4.975   6.969   6.468   7.339
    6.531   8.173   7.167   9.868   8.314   6.361   6.868   4.365   5.759   6.199
    4.151   7.196   8.557   7.543   8.695   5.338   8.906   7.352   3.687   5.626
    6.154   5.530   8.428   6.684   4.833   7.705   7.192   6.723   6.378   5.413
    6.762   7.900   8.908   8.833   5.256   5.778   6.802   5.230   3.316   1.840
    7.843   8.097   7.963   5.880   5.584   5.794   5.491   7.255   4.670   5.886
    3.910   3.618   5.945   7.949   7.394   4.710   5.586   5.944   3.211   2.546
    1.611   5.166   6.170   9.087   4.322   3.699   6.066   4.918   3.251   3.467

    1.350   7.999
   10.822  10.766  10.763   9.121   8.137   8.519   5.946   7.185   7.032   9.278
    9.368   8.843   8.214  11.200   7.848   6.349   7.848   8.860   8.084   6.549
    9.662   8.587   7.727   9.344   8.709   6.745   4.693   6.982   6.066   7.295
    7.065   8.199   7.151  10.023   8.404   6.469   6.513   4.812   5.701   6.808
    4.074   7.405   8.687   7.392   9.194   5.837   8.928   7.157   3.887   6.047
    6.774   5.766   8.158   7.088   4.952   8.001   7.551   7.059   6.215   5.520
    6.615   7.806   8.761   8.691   5.285   5.935   6.799   5.742   3.855   2.098
    7.784   8.116   7.658   5.815   5.119   5.838   5.288   7.502   5.067   6.214
    3.450   3.694   5.812   7.886   7.439   4.897   5.229   6.260   2.917   2.730
    1.332   5.711   6.492   8.944   4.430   4.487   5.730   5.383   2.577   3.662

    1.400   8.218
   10.483  10.247  10.723   8.821   8.134   8.595   5.559   6.505   6.960   9.426
    8.966   8.755   8.093  11.598   7.525   6.329   7.632   8.329   8.344   6.211
   10.015   8.544   7.792   9.557   8.618   6.731   5.517   6.971   5.959   7.061
    6.921   8.575   7.232  10.167   8.883   6.476   6.418   4.534   5.788   6.720
    3.839   7.328   8.835   7.600   8.954   5.488   8.437   7.159   4.072   5.988
    6.932   5.382   8.442   7.361   5.120   8.168   7.571   7.433   6.091   5.849
    6.532   7.889   9.100   8.599   5.286   5.290   7.016   5.539   3.750   2.232
    7.302   8.032   7.465   5.596   5.215   5.766   5.678   7.271   5.182   6.082
    3.070   3.629   5.707   8.065   7.603   4.657   5.357   6.167   2.915   2.675
    0.967   5.765   6.525   9.195   4.587   4.087   5.768   5.715   2.932   3.658

    1.450   8.245
   10.843  10.123  10.752   8.909   8.436   8.161   5.455   6.199   6.237   9.309
    9.090   9.106   7.987  11.316   7.165   6.102   8.196   8.587   8.225   6.005
   10.184   7.787   7.762   9.689   8.524   6.164   5.708   7.399   5.690   6.769
    6.995   8.747   7.032   9.690   8.999   5.804   6.230   4.413   5.802   6.887
    3.614   7.513   8.932   7.684   9.034   5.617   8.582   6.937   4.479   6.064
    7.630   5.024   9.017   7.560   5.085   8.240   7.730   7.542   6.373   6.005
    6.400   7.673   9.148   8.699   5.811   5.341   6.739   5.447   3.878   2.361
    7.336   7.970   7.415   5.721   4.850   5.725   5.717   7.539   5.272   6.484
    3.683   3.150   5.918   7.471   7.470   4.280   5.300   5.926   3.139   2.552
    1.200   5.821   6.553   9.088   4.327   4.590   5.539   5.227   2.978   3.364

    1.500   8.313
   10.493   9.882  10.744   9.283   8.006   7.989   5.154   6.125   5.659   9.563
    9.321   8.920   7.901  11.284   7.142   5.958   8.401   8.551   7.557   6.668
   10.275   7.571   7.914   9.878   8.636   6.472   5.698   7.563   5.828   6.995
    6.687   8.521   6.804   9.453   9.201   5.288   5.994   4.497   5.787   7.123
    3.762   7.397   8.841   7.918   9.351   5.901   8.702   6.113   4.682   6.013
    7.697   5.279   8.901   7.472   5.419   8.315   8.098   7.886   6.227   5.896
    6.516   8.076   9.453   8.508   5.922   5.153   7.238   5.690   3.752   1.933
    7.403   7.903   7.563   6.076   4.882   5.827   5.204   7.638   4.957   6.120
    3.688   3.702   6.269   7.620   7.003   4.429   5.651   5.870   3.317   2.157
    1.589   6.387   5.838   9.041   4.364   4.967   5.845   5.421   2.844   3.215

    1.550   8.403
   10.540   9.387  10.776   9.653   8.275   7.432   4.955   6.238   5.446   9.362
    9.168   9.040   8.420  10.515   7.029   6.193   7.718   8.369   7.580   6.894
   10.506   7.532   8.720   9.745   8.797   5.990   5.452   7.473   6.269   6.704
    6.986   8.112   6.267   9.798   8.923   5.303   5.625   4.625   5.578   6.670
    4.321   6.955   8.112   8.394   9.150   5.462   8.574   6.218   4.273   6.352
    8.025   5.442   8.703   7.914   5.572   8.236   8.419   7.919   6.206   5.720
    6.268   8.258   9.234   8.299   6.078   4.957   7.264   5.634   4.568   1.847
    7.179   7.975   7.820   6.048   4.742   5.901   5.277   7.800   5.252   6.343
    3.556   3.781   6.657   7.729   7.282   4.477   5.253   5.624   3.484   2.013
    1.377   6.192   5.592   9.112   4.204   5.514   5.822   5.237   2.657   3.015

    1.600   8.140
   10.551   9.577  10.430   9.826   8.388   7.085   5.261   6.505   5.319   9.364
    9.860   9.559   8.320  11.082   7.595   6.350   7.845   8.224   7.524   6.895
   10.678   7.311   8.839   9.936   8.241   6.201   5.111   7.487   6.256   6.558
    6.571   7.987   6.437   9.609   9.314   5.770   5.657   4.926   5.640   6.614
    4.359   6.900   8.169   8.571   9.062   5.660   7.990   6.692   3.837   6.324
    8.394   5.248   8.663   7.956   5.564   8.278   8.740   8.058   6.100   5.756
    6.274   8.964   9.469   8.767   6.046   4.248   7.063   5.758   4.740   2.153
    7.429   8.156   7.762   6.289   5.141   6.019   5.597   7.888   5.393   6.373
    3.379   3.428   6.490   7.404   6.807   4.522   5.989   5.830   3.487   2.024
    1.421   6.253   5.357   9.530   4.449   5.388   5.659   4.989   2.775   3.159

    1.650   8.523
   10.417   9.989  10.309   9.683   8.197   7.173   5.384   6.811   5.570   9.541
   10.140   8.859   8.593  11.652   7.837   6.344   7.699   8.405   8.017   7.465
   10.101   7.068   8.333   9.619   8.200   6.608   4.929   7.552   5.574   6.464
    6.569   8.483   5.932   9.330   9.070   5.722   5.721   4.532   5.807   6.388
    4.616   7.474   7.831   8.260   9.333   5.932   7.461   7.322   3.644   6.149
    8.409   5.122   8.694   7.748   5.690   8.188   8.632   8.296   6.105   5.477
    6.404   8.926   9.221   8.785   6.255   4.029   7.123   5.515   4.710   2.472
    7.145   8.564   7.669   6.203   5.533   6.794   6.152   7.708   5.397   6.334
    3.241   3.399   6.901   7.758   6.333   4.515   5.946   6.079   3.715   2.094
    1.650   6.190   4.770   9.622   4.467   4.669   5.489   4.452   2.672   3.479

    1.700   8.554
   10.240   9.761  10.600   9.162   8.351   7.159   5.643   7.362   5.617   9.560
   10.166   9.065   9.267  11.400   7.972   6.716   7.315   8.491   7.936   7.304
    9.740   6.934   8.286  10.054   8.195   6.514   5.172   7.505   5.768   6.295
    7.114   8.618   5.744   9.334   8.649   5.140   5.457   4.906   5.149   6.415
    5.103   7.270   7.888   8.055   9.359   5.505   7.819   7.412   2.984   6.266
    8.106   4.912   8.503   7.605   5.129   8.360   8.886   8.479   6.025   5.382
    6.226   9.010   8.844   9.386   6.039   4.346   6.864   5.661   5.059   1.816
    7.089   8.534   7.410   6.193   6.003   6.908   5.696   6.821   5.150   7.041
    3.209   3.920   6.678   8.215   6.721   4.620   6.304   6.438   3.559   2.391
    2.021   5.791   4.264   9.649   4.652   4.623   5.553   4.266   2.753   3.575

    1.750   8.598
    9.951   9.771  10.282   9.092   8.278   7.352   4.972   6.943   5.931   9.907