
This full-field turbulence file was generated by TurbSim (v1.40, 12-Sep-2008) on 21-May-2021 at 12:51:32.

 | w-comp |  Y  x  Z  | Grid Resolution (Y x Z) | Time-step | Hub Elev | Mean U |
            10    10     15.556     15.556          0.050      80.00     17.00

 Z Coordinates (m):
  -70.000 -54.444 -38.889 -23.333  -7.778   7.778  23.333  38.889  54.444  70.000

 Y Coordinates (m):
  -70.000 -54.444 -38.889 -23.333  -7.778   7.778  23.333  38.889  54.444  70.000

    0.000   0.781
    0.281  -0.537  -2.141  -1.295  -1.184   2.047  -0.794   1.137   0.769   1.686
    1.311   1.062   0.061  -0.370   1.710   3.645  -0.569  -1.440   2.409   1.028
   -1.746   0.445  -1.484   0.035  -0.451  -0.377   1.635  -0.094  -0.487  -0.605
    0.243  -0.985  -1.467   0.436  -0.383   0.617  -0.846  -2.768  -0.371   0.702
    0.890   0.134  -0.772   1.348  -1.713   0.944  -0.650  -0.202  -2.255   0.394
   -0.352  -0.678   0.390  -2.681  -0.644  -0.557  -0.598   0.751  -2.097   0.159
    1.653  -0.447   1.736  -0.351  -2.105  -0.226  -0.066   0.630  -0.034  -0.497
   -1.729   0.472   2.623   2.300   0.689   0.270   1.115   1.852  -1.537  -0.721
   -0.192  -2.149  -1.033  -2.219   1.992   1.708  -1.922   0.421  -0.802   1.265
    1.560  -0.933  -1.362   0.347   0.982  -0.097  -0.418   1.539  -1.356   0.282

    0.050   0.579
    0.678  -0.752  -2.407  -1.803  -1.071   1.522  -1.801   1.593   0.938   1.386
    1.417   1.054  -0.019  -1.455   0.442   3.511  -0.988  -1.002   2.037   0.773
   -0.994   0.843  -1.209  -0.422   0.105  -0.624   1.931   0.200  -1.225  -1.749
    0.176  -1.212  -1.002   1.268  -0.348   0.065  -1.282  -2.877   0.158   1.135
    1.078  -0.068  -1.414   1.394  -0.722   0.090   0.164  -0.751  -1.861   0.226
   -0.260  -0.686   0.775  -2.842   0.339  -0.774  -1.575   0.389  -2.002   0.174
    1.806  -0.215   2.043  -0.077  -1.641  -0.039  -0.812   0.859   0.010  -0.237
   -1.295   1.518   2.031   2.448   0.542   0.031   1.528   1.456  -1.780  -0.591
    0.030  -1.412  -1.958  -2.747   1.119   0.009  -1.326   0.212  -1.147   0.722
    1.350  -1.158  -0.875   0.703   0.547   0.486  -0.096   0.604  -1.846   0.855

    0.100  -0.641
    0.522  -0.374  -2.071  -1.427  -0.486   0.821  -2.530   1.111   0.550   0.818
    1.532   0.450   0.230  -2.046   0.275   3.407  -0.402  -1.112   2.226   1.427
   -1.182   0.878  -1.209   0.061  -0.243  -1.313   2.029   0.837  -0.925  -1.943
    0.070  -1.671  -1.650   1.424  -0.561   0.338  -2.343  -2.796   0.501   0.476
    1.576   0.262  -1.522   0.599   0.182  -0.306   0.671  -1.232  -0.682   0.007
    0.184  -1.132   0.504  -3.192   0.035  -0.687  -1.569   0.576  -2.688   0.429
    1.837  -0.938   2.211  -0.780  -1.277   0.107  -1.017   0.600  -0.582   0.343
   -0.887   1.964   1.693   1.710  -0.714  -0.700   1.023   0.988  -1.608  -0.303
    0.163  -1.223  -2.180  -1.886   0.731  -1.044  -1.579   0.658  -0.732   0.307
    1.523  -0.751  -0.680   0.505   0.900   0.902  -0.746   0.495  -1.573   0.556

    0.150  -0.446
    1.103  -0.509  -1.961  -2.237  -0.832   0.823  -2.474   1.148   0.604   0.526
    1.011  -0.738  -0.115  -2.022   0.586   3.461   0.202  -1.096   2.130   1.561
   -1.204   0.654  -1.376   0.574  -0.514  -0.551   1.729   0.795   0.432  -1.430
   -0.483  -1.207  -1.141   2.014  -1.259   0.754  -1.999  -3.382   0.981   0.980
    1.138   0.250  -1.510   0.077   0.361  -0.507  -0.042  -0.162  -0.886   0.620
   -0.515  -0.974   1.029  -2.736  -0.623   0.811  -0.578   1.223  -2.138   0.372
    2.299  -1.191   1.196  -0.676  -1.049  -0.664  -2.159   0.024  -0.434  -0.269
   -1.317   0.897   1.261   1.703  -0.815  -0.861   0.871   0.908  -1.092  -0.784
   -0.883  -1.718  -1.613  -1.512   0.215  -0.292  -1.000  -0.840  -0.416  -0.301
    2.189  -0.271   0.281   0.003   0.141   0.645  -1.258   0.905  -1.652   0.249

    0.200  -0.027
    1.298  -1.194  -1.786  -2.802  -0.919   1.222  -2.540   1.335   1.436   1.122
    0.883  -1.265  -0.313  -1.544   0.738   3.873   0.433  -1.748   2.345   0.657
   -1.438   1.316  -0.571  -0.009  -0.246  -0.776   1.598   0.926   0.555  -1.470
    0.020  -1.034  -0.584   1.111  -0.557   0.678  -2.447  -3.664   0.699   0.570
    0.644   0.354  -0.998  -0.647   0.043  -0.651  -0.323  -0.841  -1.279   0.672
   -0.320  -1.144   1.139  -2.217  -0.892   0.306  -0.822   0.952  -1.939  -0.429
    2.476  -0.857   1.234  -0.454  -1.011  -0.918  -2.786   0.191  -0.301  -0.492
   -0.530   0.959  -0.320   2.665  -0.689  -0.675   0.431   1.042  -1.589  -0.007
   -1.452  -1.598  -2.767  -0.939  -0.023  -0.262  -0.324  -0.734  -0.432  -0.619
    1.734  -0.089   0.501   0.312   0.333  -0.033  -0.407   0.344  -0.808   0.548

    0.250   0.198
    1.054  -1.482  -1.382  -1.926  -0.526   1.341  -2.554   1.327   0.609   1.321
    1.897  -1.143  -0.709  -1.635   0.484   4.072   0.179  -2.790   2.373   0.231
   -1.487   1.467  -0.305  -0.633   0.002  -0.421   1.327   1.374  -0.387  -1.965
    0.573  -1.236  -0.555   0.410  -0.496   1.350  -1.107  -3.442   0.382  -0.004
    0.124   0.238  -0.537  -0.413   0.679  -0.317  -0.491  -0.137  -1.546   1.301
   -0.602  -2.086   0.444  -2.389  -1.424  -0.478  -0.434   0.984  -2.636  -0.356
    2.509  -0.400   0.997  -0.957  -0.516  -0.392  -2.446   0.084  -0.459  -1.663
    0.266   1.073  -0.053   2.528  -1.395  -0.273   0.897   1.605  -2.279  -0.082
   -0.732  -1.331  -2.604  -0.088  -0.011  -0.421  -0.052  -0.087  -0.616  -0.608
    0.830  -0.567   0.428   0.076   0.494  -1.163  -0.200  -0.438  -0.167   1.123

    0.300  -0.202
    0.565  -1.348  -2.477  -1.782  -1.353   1.530  -2.332   1.159   0.417   1.607
    1.658  -1.019  -0.241  -1.954   0.200   3.959  -1.033  -2.479   1.871   0.087
   -1.561   2.252  -0.452  -0.383   0.501   0.406   1.090   1.332  -0.123  -2.468
   -0.187  -1.183  -1.473  -0.125  -0.890   1.056  -1.597  -3.454   0.178   0.139
    0.125   0.101  -0.703  -0.565   1.071  -1.158  -1.143   0.156  -1.527   1.630
   -0.205  -1.827   0.575  -1.005  -1.841  -1.432   0.040   1.045  -1.912  -0.351
    2.917  -0.093   0.535  -0.593  -0.618  -0.671  -3.015  -0.194  -1.153  -2.301
   -0.050   1.481   0.716   2.389  -1.574  -0.312   0.374   1.169  -2.557  -0.440
   -1.485  -1.333  -2.119  -0.289   0.029  -0.630  -0.075  -0.362  -0.793   0.367
    1.224  -0.346  -0.067   0.562   0.708  -0.488   0.102  -0.503  -0.284   0.487

    0.350   0.326
    1.900  -2.014  -2.366  -1.988  -0.986   2.316  -2.656   0.235  -0.002   1.582
    1.515  -2.100   0.152  -1.545   1.075   2.859  -0.764  -1.847   1.313   1.344
   -1.269   2.227   0.224  -0.586   0.340  -0.159   1.239   1.745  -0.315  -1.391
   -0.033  -1.861  -1.695  -0.036   0.084   0.541  -0.594  -3.530  -0.301  -0.151
   -0.038  -0.743  -0.142  -0.243   0.362  -0.774  -1.466  -0.050  -1.201   1.666
   -0.335  -2.046   0.932  -0.745  -1.541  -0.964  -0.438   1.559  -2.014   0.709
    3.003  -0.366   0.357  -0.770  -0.933  -0.712  -2.892  -0.294   0.160  -1.735
   -0.945   1.838   0.882   2.355  -1.254  -0.307   0.450   1.678  -2.560   0.296
   -0.961  -0.784  -2.150   0.012   0.429  -0.898  -0.273   0.279  -0.459   0.727
    1.030  -0.813  -0.461   0.506   0.241  -0.338  -0.172  -0.647   0.429   0.237

    0.400   0.087
    2.356  -1.014  -1.620  -1.839  -0.725   2.947  -2.072   0.319  -0.396   1.551
    1.970  -1.284  -0.469  -1.086   0.961   2.120   0.191  -2.063   0.458   2.199
   -0.832   2.379   1.063   0.186  -0.429  -1.221   0.377   1.517   0.658  -1.080
    0.111  -1.960  -1.231   0.752   0.696   0.715  -1.642  -3.712   0.483  -0.094
    0.193  -0.058   0.797   0.285   0.450  -0.900  -1.698   0.093  -1.390   1.807
   -0.370  -1.894   0.362  -1.144  -0.694   0.597  -0.556   2.218  -1.255   1.269
    2.965  -0.283   0.162  -0.708  -1.021  -0.372  -2.972  -1.383   0.659  -1.410
   -1.239   0.860   1.059   2.265  -1.967  -0.552   1.732   1.686  -2.174   0.626
   -0.547  -1.172  -2.343   0.422   0.667  -0.142   0.159   0.409  -0.380   1.313
    0.620  -1.173  -1.011   1.122  -0.255  -0.911  -1.164  -0.860  -0.208  -0.142

    0.450   0.557
    2.388  -0.798  -2.302  -2.077  -1.193   3.371  -1.455   0.336  -0.252   0.633
    1.901  -1.260   0.036  -1.092   0.230   1.516   0.343  -1.842   0.744   1.702
   -0.842   1.740   0.792   0.235  -0.204  -1.708   0.304   0.594   0.274  -1.006
   -0.091  -1.477  -1.112   1.338   0.551   0.307  -1.507  -2.776   0.599   0.350
    0.156   0.184   0.412   0.216  -0.130  -0.100  -1.145   0.188  -1.132   1.456
   -0.257  -3.112  -0.685  -0.698  -0.551   0.599  -0.029   2.946  -0.724   1.702
    3.328   0.215  -0.029  -0.457  -1.160  -0.290  -2.868  -1.051  -0.625  -1.082
   -1.601   0.660   1.018   2.506  -1.680  -0.566   0.985   1.176  -1.712   0.454
    0.293  -0.395  -2.207   0.695   0.504  -0.846   0.193   0.224   0.215   0.499
    1.318  -0.187  -0.510   0.479   0.482  -1.482  -1.077  -1.172  -1.763  -0.591

    0.500   0.304
    2.213  -1.080  -0.982  -2.600  -1.095   3.196  -2.073  -0.693   0.243   0.235
    1.971  -2.089   0.746  -1.051   0.621   1.902   0.249  -1.719  -0.002   1.457
   -0.716   2.325   0.684  -0.466  -0.931  -1.214   0.011   0.335  -0.505  -0.613
    0.700  -0.845  -1.821   0.940   1.662   0.845  -1.367  -3.086  -0.256   0.579
    0.328   0.919   0.161  -0.123   0.668  -0.709  -0.869  -0.169  -1.183   0.682
   -0.485  -2.764   0.446  -0.201  -0.844  -0.204  -0.299   2.597  -0.328   1.776
    2.308   0.304  -0.333  -0.775  -1.593  -1.250  -3.374  -0.948  -0.099  -0.924
   -1.926   1.375   0.362   2.684  -2.435  -0.889   0.702   1.274  -2.038   0.540
    0.290  -0.295  -2.643   1.252   0.460  -0.444   0.385   0.507   1.060   0.388
    1.011  -0.460   0.890   0.802   0.643  -2.249  -0.662  -1.344  -1.593  -1.034

    0.550   0.874
    2.421  -1.191  -1.012  -1.939  -0.639   2.664  -2.881  -0.195  -0.029  -0.057
    1.640  -2.371   1.165  -0.844  -0.487   2.028   0.517  -1.830  -0.657   1.201
   -0.828   2.077   0.780  -0.184  -1.530  -1.216  -0.511   0.490  -0.359  -1.298
    0.885  -0.552  -1.609  -0.082   1.788   0.860  -1.206  -2.815  -0.105   0.783
    1.281   0.589  -0.002  -0.555  -0.009  -0.820  -1.265  -0.385  -1.087   0.961
   -1.071  -2.574  -0.370  -0.748  -1.305  -0.979  -0.846   2.756  -0.233   1.497
    2.129   1.014  -0.614   0.129  -1.907  -1.384  -2.647  -0.629   0.160  -0.800
   -1.508   0.735   0.480   2.445  -2.507  -1.352   1.320   1.802  -1.590   0.172
    0.526  -0.100  -3.553   0.492   0.036  -0.908  -0.536   0.585   0.441   0.461
    0.970  -0.291   1.075   0.167   0.853  -2.740  -0.391  -2.235  -1.478  -1.427

    0.600   0.752
    2.097  -0.874  -1.230  -2.338  -0.787   1.334  -2.354  -1.256   0.224  -0.379
    1.542  -1.960   1.216  -1.726   0.234   2.107   0.401  -2.011  -0.064   1.399
   -0.750   1.298   0.433   0.386  -1.500  -2.594  -0.573   0.771   0.029  -1.486
    0.536  -0.878  -2.184   0.735   1.033   0.623  -1.203  -3.009   0.690   1.062
    1.536   0.306  -0.701   0.199  -0.395  -1.067  -1.150   0.193   0.454   1.508
   -1.604  -2.406  -0.427  -0.723  -0.748  -0.650  -1.115   2.657   0.419   2.142
    2.897   0.914   0.291  -0.185  -0.714  -1.494  -3.151  -1.520  -0.176   0.145
   -1.160   0.701   0.755   1.557  -2.604  -0.669   1.113   1.055  -1.644   0.152
    0.598   0.260  -3.125  -0.238   0.678  -0.456  -0.040   0.494   1.197   0.379
    0.429   0.213  -0.175  -0.185   0.362  -3.238  -0.361  -1.581  -1.611  -1.850

    0.650   0.251
    1.886  -0.353  -0.789  -2.626  -1.107   1.446  -2.575  -0.041   0.081  -0.318
    0.581  -1.714   1.096  -2.506   0.526   1.828  -0.182  -2.851   0.016   0.933
   -0.506   0.971   0.828   0.910  -1.827  -2.794  -0.029   0.820   0.163  -0.914
    0.684  -1.316  -1.501   0.515   0.280   0.585  -1.959  -3.334   0.084   0.679
    1.351   0.970  -0.900   1.325   0.941  -0.468  -1.393  -0.269   0.189   1.965
   -1.532  -2.309  -0.001  -1.212   0.279  -0.699  -0.871   2.044   0.283   2.265
    2.661   1.760  -0.219   0.134  -0.261  -1.192  -1.918  -0.962  -0.496  -0.397
   -0.613   1.226   0.153   0.731  -2.673  -0.512   1.483   0.218  -1.832   0.389
    0.670   0.634  -2.231  -0.548   1.119  -1.110   0.397   0.414   1.769   0.870
    0.394   0.651   0.425  -0.168  -0.006  -1.582  -0.490  -1.633  -0.825  -2.040

    0.700   0.029
    1.260  -0.274  -0.386  -2.602  -1.898   1.462  -3.356  -0.246   0.655  -0.666
    0.480  -2.462   1.238  -1.851  -0.287   2.083   0.095  -2.822  -0.055   1.559
   -1.596   1.474   0.210   1.066  -1.119  -3.783   0.491   0.921  -0.486  -0.032
    0.349  -1.761  -0.881   0.474   0.305   1.055  -1.825  -2.867  -0.284   0.675
    0.958  -0.010   0.263   0.885   0.523   0.004  -1.711  -0.527   0.341   1.511
   -1.580  -1.118   0.165  -1.102   0.288  -1.587  -1.333   2.056  -1.417   2.425
    2.352   1.765   0.902  -0.192  -0.229  -1.150  -0.764  -0.738  -1.200  -0.847
   -0.916   1.432   0.107   0.485  -2.429  -0.206   1.230  -0.385  -1.514   1.003
    0.563   0.468  -2.525  -1.077   0.430  -0.919   0.334   0.863   1.110   0.315
    1.094  -0.031  -0.095  -0.271  -0.036  -1.948  -0.685  -1.562  -0.846  -1.788

    0.750  -0.431
    0.430  -1.485  -0.134  -2.121  -1.994   2.218  -3.639  -0.359   0.555  -0.191
    0.152  -2.776   0.502  -1.559  -0.110   1.918   0.565  -2.596   0.400   1.616
   -1.904   1.722   0.283   1.402  -0.951  -3.174   0.529   1.376   0.264  -1.460
    0.094  -2.659  -0.179   0.381  -1.101   1.075  -0.865  -2.751   0.285   0.719
    0.830  -0.480  -0.016   1.023   0.738  -0.212  -1.413  -0.964   0.532   0.963
   -0.855  -0.925   0.135  -1.381   0.473  -0.512  -0.615   1.434  -1.663   2.736
    2.028   1.357   0.771  -0.656  -0.084  -0.665  -0.542   0.207  -1.258  -0.783
   -1.656   2.299  -0.022   0.712  -2.616  -0.439   0.372  -0.840  -2.303   0.721
   -0.309  -0.391  -2.114  -1.965   1.088  -0.228   0.351   0.732   0.615  -0.741
    1.562  -1.156  -1.972   0.033  -0.554  -1.709  -0.976  -1.816  -1.026  -1.267

    0.800  -0.501
    0.124  -1.405   0.065  -1.399  -1.804   1.962  -3.886  -0.779   0.292  -0.733
    0.665  -2.689  -0.583  -1.601   0.690   2.427   0.433  -2.092  -0.483   1.836
   -1.790   2.155   0.903   1.987  -1.632  -3.115   0.784   1.641  -0.244  -1.744
   -0.027  -1.509  -0.093   0.044  -1.163   0.780  -0.538  -1.482  -0.184   1.770
    0.702  -1.307  -0.860   1.440   0.679  -0.545  -1.317  -1.136   0.249   0.631
   -0.437  -0.431   1.016  -1.603  -0.603  -0.512  -0.154   1.236   0.003   2.390
    2.476   1.755  -0.228  -0.924  -0.021  -0.508   0.090   0.074  -1.456  -0.416
   -2.513   2.006   0.120   0.729  -3.093  -0.837   0.463  -1.252  -2.307   0.446
   -0.546  -0.165  -0.857  -2.553   1.189  -0.937   0.632   0.064  -0.044  -1.425
    1.346  -1.536  -1.105   0.206   0.001  -1.853  -1.784  -1.814  -0.341  -0.909

    0.850  -0.357
   -0.095  -1.499  -0.143  -1.743  -1.739   1.902  -3.931  -0.245   0.017  -0.639
    0.036  -2.341  -0.970  -1.850   0.233   2.772   0.125  -2.005  -0.472   2.019
   -2.028   2.179  -0.539   1.625  -1.231  -4.590   0.320   0.754  -0.538  -1.308
   -0.670  -1.555   0.574  -0.103  -0.678   1.695  -0.163  -2.071   0.752   0.911
    0.513  -0.996  -1.323   1.772   0.664  -0.977  -1.121  -0.806   0.839   0.936
   -0.352  -0.030   1.084  -2.040  -1.482  -0.617   0.685  -0.110   0.292   1.583
    2.103   1.123   0.007   0.473   0.311  -0.412   0.008   0.422  -1.259  -0.535
   -2.159   0.821   0.713   0.941  -2.512  -0.209   0.501  -0.635  -2.010   0.188
   -0.019  -0.156  -1.821  -1.939   1.138  -1.212   0.237  -1.154   0.388  -1.035
    1.189  -0.682  -1.542   0.136  -0.749  -2.382  -1.809  -1.797   0.561  -1.167

    0.900  -0.454
    0.012  -1.389  -0.692  -2.044  -0.991   1.890  -3.878   0.741   0.129  -0.548
   -0.419  -2.155  -0.970  -2.141   1.520   3.295   0.602  -1.046  -0.276   2.229
   -2.420   1.070  -1.782   1.314  -1.157  -3.455   0.460   0.422  -1.108  -1.755
    0.428  -1.540  -0.406  -0.591  -0.223   1.373  -0.428  -2.390   0.920   0.879
    0.705  -0.641  -0.099   1.558   0.881  -0.843  -1.266  -0.942   1.713   1.630
   -0.029   0.202   1.092  -2.175  -0.746  -0.443   0.254  -0.275   0.200   0.755
    1.787   0.774   0.559   0.955   0.246  -0.912   0.221   0.502  -1.351   0.041
   -2.187   0.996   0.793   1.065  -3.251   0.127   0.723  -1.320  -1.469   0.408
   -0.353  -0.550  -2.167  -1.305   1.423  -0.585   0.120  -0.944   0.883  -0.662
    1.010  -0.086  -2.006  -0.140  -1.370  -2.647  -1.155  -2.437   1.016   0.034

    0.950   0.306
   -0.021  -1.123  -1.316  -1.711  -1.986   1.523  -3.546   1.939  -0.401  -1.351
   -1.024  -1.786  -1.223  -1.597   1.508   1.949  -0.040  -0.732  -0.057   2.689
   -1.526   0.593  -2.016   0.491  -1.115  -2.397   1.136   1.371  -1.338  -1.375
   -0.194  -0.129  -0.522  -0.619   0.291   0.576  -0.295  -2.782   0.633   0.478
    0.483  -1.099   0.357   2.162   0.871  -1.116  -1.838  -0.446   0.893   1.014
    0.480   0.046   1.295  -2.672  -1.198  -1.604   0.955  -0.160   0.226   0.300
    1.617   0.510   0.476   1.305   0.368  -0.179  -0.458   0.850  -1.304  -0.499
   -2.418   0.582   0.832   1.031  -2.901   0.489   0.823  -1.238  -1.616   0.315
   -1.166  -0.972  -1.720  -1.127   2.152   0.322  -0.368  -1.591   0.538  -0.364
    0.422  -0.786  -2.040   0.461  -1.854  -2.667  -0.666  -1.548   0.789   0.385

    1.000   0.242
   -0.726  -1.092  -1.197  -0.720  -1.439   2.101  -3.870   2.276  -0.769  -1.287
   -1.054  -2.238  -0.605  -0.409   1.038   1.699  -0.242  -0.909   0.100   2.389
   -1.448   0.068  -1.202   0.219  -1.637  -2.212   1.757   1.672  -1.625  -1.084
   -1.017  -0.063  -0.779   0.218   0.207   0.026   0.383  -1.752  -0.247   0.157
    0.613  -0.686   0.734   1.808   0.359  -1.121  -1.275  -0.123   0.707   0.796
    1.004   0.172   1.053  -2.009  -2.514  -1.222   0.826   0.270  -0.065   1.036
    2.721   0.469   1.345   0.178   1.169  -0.213  -0.810   0.742  -1.304   0.803
   -2.495   0.808   0.864   1.542  -3.750   0.401   0.474  -1.083  -1.747   0.308
   -1.792  -0.462  -1.307  -0.997   2.263   0.150   0.758  -1.033   0.440  -0.437
    0.835  -0.558  -2.602   0.389  -2.414  -4.072  -0.035  -1.749   0.772  -0.167

    1.050   0.969
   -0.210  -1.370  -1.453  -0.158  -1.387   3.185  -3.368   2.046  -0.798  -1.345
   -0.834  -1.680  -1.484  -0.786  -0.490   2.597  -0.107  -1.223  -0.294   2.641
   -1.339   0.526  -1.298   1.940  -1.179  -2.144   1.526   1.911  -1.914  -0.146
   -0.370   0.453  -1.342   0.238   0.800   0.758  -0.001  -2.555  -1.090   0.394
    0.550  -1.076   1.275   1.777   0.294  -0.297  -1.184  -1.220   0.571   0.718
    0.888   0.342   1.356  -1.328  -2.717  -0.698   0.376  -0.138  -0.274   1.957
    1.648   1.187   1.575  -0.230   0.797   0.244  -1.085   0.898  -1.755   1.341
   -2.641   1.479   0.427   1.549  -3.349   0.191   0.645  -0.834  -1.365   1.447
   -1.956  -0.425  -1.317  -0.989   2.173  -0.087   0.704   0.214   0.593  -0.229
    0.772  -0.528  -3.220  -0.264  -1.765  -3.441   0.262  -2.186  -0.083  -0.283

    1.100   0.716
   -0.592  -0.602  -0.959  -0.895  -1.515   2.974  -2.511   2.751  -1.350  -1.273
   -0.907  -2.294  -1.622   0.078   0.854   2.901  -0.767  -0.299   0.140   2.163
   -1.166  -0.091  -1.765   2.011  -1.235  -2.656   1.682   2.307  -1.759   0.513
   -0.306   0.437  -0.744   0.921   0.910   1.304   0.227  -2.620  -0.856   0.584
    0.389  -1.044   0.466   1.701   0.310  -0.327  -1.544  -1.294   0.050   1.412
    1.074  -0.275   1.613  -1.006  -1.628  -1.978   0.486   0.579  -0.891   0.941
    1.847   1.166   1.393   0.286   0.970   0.280  -0.609   0.048  -1.188   1.194
   -2.848   1.946   1.664   1.282  -2.514   0.101   0.972  -0.990  -1.559   1.321
   -1.368  -0.772  -0.917  -1.102   2.041   0.063   1.020   0.339   1.019   0.393
   -0.001  -1.076  -2.723  -0.234  -1.501  -3.724  -0.287  -2.636  -0.010   0.363

    1.150   1.278
   -1.430  -0.938  -0.447  -0.972  -1.720   2.370  -2.175   2.060  -2.461  -1.547
   -0.473  -2.277  -1.154  -0.103   0.513   2.918  -0.217   0.569   0.265   1.846
   -0.490   0.555  -0.960   1.692  -0.935  -2.311   0.804   1.623  -1.300   0.428
    0.565   0.222  -0.976   0.961   0.839   0.487  -0.083  -1.988  -0.971   0.102
   -0.114  -0.673   1.028   1.463   1.207  -0.594  -1.057  -1.880  -0.034   0.788
    1.892   0.335   2.579  -1.584  -1.673  -1.780   1.452   0.811  -0.854   0.465
    0.798   1.197   1.495   1.016   0.335   1.141  -0.548   0.483  -0.323   0.535
   -3.310   1.755   1.457   1.025  -1.610  -0.291   0.763  -0.829  -1.663   1.231
   -1.970  -1.041  -1.501  -2.128   1.310   0.086   1.250  -0.278   0.060   0.364
   -0.780  -1.420  -3.030  -0.636  -1.254  -2.650  -0.088  -1.656   0.677   0.453

    1.200   0.858
   -0.788  -1.296   0.209  -1.249  -1.878   1.432  -3.008   2.178  -1.599  -0.640
   -0.158  -3.181  -0.241  -0.118   0.551   2.530   0.213   0.840   0.453   1.676
   -0.166   0.572  -1.036   0.016   0.205  -1.420   1.409   2.360  -0.779   0.359
    0.374   1.277  -1.180   0.900   1.076   0.948   0.511  -1.670  -0.368  -0.509
    0.217  -0.678   0.301   1.279   1.880   0.183  -1.280  -2.275   0.236   0.884
    1.442   0.698   2.364  -1.318  -1.069  -1.366   1.480   0.401  -0.811  -0.417
    0.911   0.519   0.400   0.958   0.174   1.716  -0.480   0.947   0.563   1.554
   -2.735   1.363   1.541   0.455  -0.996  -0.654   0.399  -1.529  -1.372   0.906
   -2.634  -0.907  -2.045  -2.929   1.218  -0.278   1.862  -0.951   0.245   0.220
   -1.065  -1.571  -2.192  -0.534  -1.390  -2.086   0.140  -0.394   0.252   0.452

    1.250   1.645
   -0.212  -1.798   0.486  -1.315  -2.495   1.431  -2.865   1.497  -1.577  -1.241
   -0.138  -3.367   0.267  -0.784   1.047   2.301   0.347   0.336   1.213   1.721
    0.753   0.520  -0.847  -1.101   0.130  -1.269   1.721   1.950  -0.598  -1.115
    1.009   0.714  -1.516   1.763   0.968  -0.170   0.412  -2.733  -0.489  -0.568
   -0.564  -0.107  -0.298   1.787   1.408  -0.520  -0.966  -1.984  -0.355   0.587
    0.644   0.767   1.805  -0.584  -0.172  -0.006   1.586   0.925  -1.376   0.625
    1.464  -0.040  -0.285   0.225   1.053   1.984  -0.434   1.431   0.174   1.231
   -2.450   1.667   0.273   1.369  -1.648  -1.413   1.120  -0.768  -2.188   0.345
   -2.007  -1.268  -1.275  -2.260  -0.016  -0.486   2.090  -0.839   1.752   0.920
   -1.278  -1.309  -1.912  -0.511  -1.893  -2.199  -0.191  -0.736   0.509   0.676

    1.300   1.188
   -0.462  -0.608   0.523  -0.627  -3.098   0.912  -2.852   1.410  -1.261  -2.082
   -0.412  -2.948  -0.121  -1.229   0.803   2.713   0.538   0.227   1.985   2.051
    1.129   0.318  -0.370  -1.719   0.050  -1.198   1.106   2.153  -0.688  -1.097
    1.488   0.246  -0.692   2.277   1.117  -0.225  -0.200  -3.219  -0.575  -1.144
    0.021   1.042  -0.442   1.963   0.926   0.161  -1.146  -2.077  -0.900   0.002
    1.315   1.338   0.717   0.065  -0.569   1.046   1.761   0.869  -0.591   0.739
    0.742   0.036  -0.477  -0.043   1.322   0.919  -0.561   1.614  -0.170   1.087
   -2.444   1.019  -0.194   1.163  -1.661  -0.187   0.408  -0.297  -1.911   0.876
   -2.197  -0.963  -0.972  -1.608   0.644  -0.259   1.579  -0.423   1.172   0.674
   -0.677  -0.957  -2.077  -0.100  -2.313  -1.264   0.071  -1.653   0.622   0.441

    1.350   0.216
   -1.581  -0.704   0.853  -0.383  -3.594   0.367  -2.307   0.344  -0.764  -1.049
   -0.984  -3.707  -0.090  -0.730   0.394   4.340   0.215   0.270   2.126   3.037
    1.173   0.371  -0.441  -0.680   0.778  -1.140   1.238   2.734  -1.063  -0.855
    0.231  -0.248  -1.739   2.508   0.957   0.143  -1.032  -2.950  -0.314   0.176
   -0.007   0.922   0.149   1.333   1.476   0.070  -0.349  -1.943  -0.414   0.749
    1.341   1.508   0.902   0.241  -0.768   1.883   1.300   1.113   0.265   0.544
    0.977   0.722  -0.384   0.496   0.893   0.437  -0.065   1.120   0.237  -0.138
   -1.588   1.413   0.597   1.942  -1.328  -0.116   0.348  -1.039  -2.351   0.192
   -2.446  -0.584  -1.115  -1.439   1.350   0.169   1.567  -0.705   1.501   0.450
   -1.428  -1.678  -2.095   0.728  -2.658  -1.379  -0.313  -0.550   0.339   1.010

    1.400   0.301
   -1.402  -0.520   0.555  -1.179  -3.523   0.941  -1.802   0.425  -1.072  -0.130
   -1.219  -2.827   0.107  -1.019   0.047   4.323   0.484   0.373   1.816   3.164
    1.212   1.532  -0.884  -0.509   0.523  -1.578   1.113   2.365  -0.010  -0.881
    0.018  -0.353  -1.007   2.214   1.133   0.250  -1.726  -2.226  -0.917   0.111
    0.165   0.547   0.394   2.190   1.456  -0.793   0.500  -1.508  -0.971   1.123
    1.277   1.444   1.025   0.482  -1.637   1.494   1.362   1.224  -0.487   0.310
    0.261   0.463   0.768   0.601   1.060   1.174   0.618   1.301   0.119  -0.323
   -2.109   1.634  -0.003   2.174  -1.872   0.116  -0.087  -0.882  -2.574  -0.328
   -1.456   0.027  -0.722  -0.245   2.039   0.201   1.135  -0.865   1.529   0.005
   -0.632  -1.616  -1.669   1.461  -2.936  -2.012  -0.206  -0.051  -0.203   1.065

    1.450   0.135
   -0.264  -1.337   0.724  -1.985  -2.846   0.774  -2.102   0.266  -0.964  -0.587
   -0.936  -3.280  -0.152  -1.252   1.329   3.669   0.764   0.897   1.923   2.328
    1.630   0.763  -0.842  -0.056   0.849  -1.670   0.752   1.848   1.119  -0.571
    0.004  -0.109  -0.073   2.247   0.820   0.651  -0.871  -1.539  -1.685   0.015
   -0.789   0.418   0.364   2.052   1.663  -0.194   1.061  -1.744   0.023   0.873
    1.301   1.553   0.973  -0.918  -1.925   0.410   1.270   1.023  -1.388   0.998
    0.576  -0.170   0.968   1.364   1.304   1.011   0.915   1.535  -0.345  -0.120
   -1.846   1.772  -0.560   2.083  -2.727  -0.281   0.238  -0.467  -1.562  -0.508
   -1.139  -0.308  -0.224  -0.278   1.448  -1.205   1.527  -0.724   1.328  -0.400
   -0.448  -1.689  -1.709   1.064  -2.989  -1.128  -0.684   0.669  -1.003   0.893

    1.500   0.023
   -0.752  -1.315   1.110  -2.518  -1.295   0.229  -1.671   0.422  -0.897  -1.623
    0.192  -4.017   0.133  -1.312   2.115   2.668  -0.603   1.205   1.718   1.837
    1.100   0.850  -1.070   0.052   1.164  -1.880   2.439   2.706   1.215  -0.352
   -0.365  -0.457   0.072   1.790   1.324   0.836  -0.792  -2.307  -1.354   0.185
   -1.261   0.230  -0.505   1.142   1.572  -0.409   0.282  -1.498   1.368   0.477
    1.704   1.208   0.936  -0.223  -1.579  -0.147   1.946   1.728  -0.966   1.316
    0.734   0.073   0.475   0.863   1.300   0.243   1.619   1.351  -0.156   0.684
   -0.228   1.385  -0.335   2.361  -2.652  -0.646  -0.216  -0.295  -1.355  -1.044
   -1.450   0.260   0.257  -0.281   1.395  -0.569   2.078  -0.426   0.991  -0.083
   -0.142  -2.301  -1.547   1.021  -2.126  -1.157  -0.743   0.804  -0.892   1.130

    1.550   0.577
   -0.499  -1.046   1.332  -2.447  -1.090   0.453  -2.174   0.184  -0.654  -2.061
    0.942  -3.464  -0.533  -0.974   2.484   2.906  -1.224   0.447   2.253   2.578
    0.412   0.196  -2.041  -0.143   1.768  -1.732   2.435   3.207   1.063  -0.622
   -0.592  -0.244   0.503   1.336   1.964   0.467  -0.836  -2.804  -0.526   0.412
   -0.761  -0.169   0.005   1.824   1.671   0.111  -0.007  -1.218   1.305   0.279
    1.547   0.737   0.004   0.294  -1.429  -0.896   0.680   1.849  -0.770   0.670
   -0.396   0.047   0.113   0.811   0.678  -0.051   1.569   1.153   1.070   0.141
   -0.080   0.522  -0.036   2.031  -2.407  -0.480  -0.057  -0.031  -1.931  -1.419
   -1.734   0.551   0.509   0.336   1.487  -0.981   1.824  -1.116   1.062  -0.434
   -0.436  -1.793  -1.596   0.374  -1.681  -1.129  -0.111   0.133  -1.315   1.381

    1.600   0.748
   -0.476  -0.283   0.171  -3.145  -1.081   1.221  -1.909  -0.584  -0.282  -2.164
    0.559  -2.784   0.070  -1.727   2.627   3.820  -1.662   0.642   1.705   1.877
    0.801   0.240  -1.351   0.327   1.709  -1.794   2.646   2.868   0.523  -0.010
   -0.701  -0.778   1.045   1.681   2.296   0.702  -1.217  -2.496   0.348   0.371
   -1.092   0.110  -0.390   1.807   2.190   0.501  -0.314  -1.655   0.913   1.171
    1.262   0.495   0.383   0.949  -1.803  -1.559  -0.313   1.857  -0.370   0.845
   -0.451  -0.008   0.085   0.125   1.148   0.544   1.111   1.068   1.122   0.038
   -1.288   1.376  -0.775   1.604  -1.593  -0.990  -0.277  -0.163  -1.509  -0.552
   -1.456   0.871   1.012   0.297   0.510  -1.448   1.204  -1.060   0.391  -0.148
   -1.180  -1.891  -1.234   1.078  -1.561  -0.025   0.472  -0.212  -0.841   1.573

    1.650  -0.141
   -1.254  -0.699   1.042  -3.335  -0.645   1.512  -2.417  -0.404  -0.601  -1.721
   -0.151  -2.294  -0.262  -2.458   2.837   2.894  -0.258   0.364   1.109   1.256
    0.535  -0.164  -1.127  -0.080   1.320  -1.454   2.131   3.120  -0.068   0.121
   -0.929  -1.417   1.048   0.921   2.468   0.169  -0.150  -2.820   0.956   0.543
   -0.547   0.820  -1.020   1.977   2.061  -0.105  -0.753  -1.982   0.454   1.432
    0.776   0.847   1.179   0.792  -0.821  -1.461   0.197   1.695  -0.147   0.244
    0.339   0.182  -0.538  -0.265   1.278   1.190   0.951   0.390   0.801  -0.480
   -2.286   0.855  -1.282   1.464  -1.509  -0.490   0.103   0.364  -1.728  -1.000
   -0.714   1.969   0.910  -0.345   1.057  -0.763   1.816  -1.825   0.168   0.947
   -0.433  -2.686  -0.991   1.579  -1.745  -0.227  -0.115  -1.391  -0.675   1.260

    1.700  -1.089
   -1.574  -0.183   0.944  -3.736  -1.245   0.797  -2.423   0.650  -0.198  -0.453
    0.059  -1.653  -1.276  -1.534   3.229   3.417   0.017   0.688   0.736   1.716
   -0.012  -0.240  -1.133   0.059   1.184  -1.234   2.435   2.063  -0.147  -0.057
   -1.015  -0.730   1.467   0.882   2.631  -0.298   0.067  -2.579   1.041  -0.364
   -0.625   1.506  -1.295   2.058   2.262  -1.628  -0.332  -1.190   0.455   1.512
    0.884   0.727   0.935   0.191  -0.438  -1.592   0.267   2.048  -0.750   0.628
    0.650  -0.190  -0.254   1.239   1.320   1.160   0.569   0.196   1.249  -0.874
   -1.903   0.191  -1.111   1.701  -2.133  -0.897   0.495  -0.138  -1.465  -1.463
   -0.001   1.859   0.019  -0.068   1.137  -0.103   1.561  -2.347   0.729   0.666
    0.151  -2.158  -0.313   1.634  -1.853   0.035  -0.358  -1.255  -1.691   0.186

    1.750  -0.362
   -1.276   0.509   1.099  -3.209  -1.108   1.249  -2.129   0.367   0.083  -0.054