
This full-field turbulence file was generated by TurbSim (v1.40, 12-Sep-2008) on 27-May-2021 at 14:31:46.

 | u-comp |  Y  x  Z  | Grid Resolution (Y x Z) | Time-step | Hub Elev | Mean U |
            10    10     15.556     15.556          0.050      89.60     17.00

 Z Coordinates (m):
  -70.000 -54.444 -38.889 -23.333  -7.778   7.778  23.333  38.889  54.444  70.000

 Y Coordinates (m):
  -70.000 -54.444 -38.889 -23.333  -7.778   7.778  23.333  38.889  54.444  70.000

    0.000  18.891
   18.391  18.103  20.980  18.596  17.048  16.117  17.386  20.556  19.904  20.343
   16.412  15.675  18.641  19.822  17.890  18.544  12.475  16.006  16.978  17.426
   15.714  17.088  19.402  19.313  19.442  21.052  16.654  16.543  14.007  14.229
   14.680  14.072  17.762  20.934  20.139  16.745  19.288  17.166  13.060  14.335
   14.520  13.392  15.853  17.973  20.579  16.298  17.792  14.422  14.889  16.554
   14.831  11.965  14.125  20.090  18.139  18.762  18.133  19.008  17.438  17.364
   16.385  12.381  14.649  15.221  16.593  15.604  14.461  17.176  19.171  17.982
   14.169  10.119  13.799  14.191  15.094  12.647  15.762  16.560  17.759  16.393
   13.274  16.697  11.681  15.720  11.087  12.869  11.032  12.541  13.585  14.575
    8.047   9.217  11.098  13.377  11.309  11.653   7.713   7.681  11.505  10.840

    0.050  19.498
   17.870  17.379  20.984  19.291  18.071  15.438  18.104  20.711  19.558  19.690
   15.758  15.437  17.904  19.768  18.631  18.078  13.674  16.616  17.689  16.848
   15.395  16.695  20.024  18.951  18.865  21.183  16.921  16.546  15.755  14.155
   13.855  13.790  18.752  21.684  20.087  17.588  19.630  18.100  13.036  13.788
   14.590  13.725  15.846  17.755  21.474  16.620  16.909  14.983  14.617  16.087
   15.694  12.304  14.339  20.304  18.350  18.649  20.112  19.520  17.620  18.370
   16.583  13.038  14.857  13.521  16.061  16.272  15.367  16.912  19.988  18.172
   13.695   9.753  13.263  14.438  15.530  12.923  16.391  16.591  17.815  17.145
   13.652  16.634  10.985  15.514  10.580  12.930  10.563  12.389  13.868  13.944
    8.481   9.743  10.802  13.287  11.131  10.818   7.334   7.130  11.237  11.429

    0.100  20.149
   17.269  17.687  20.359  19.820  18.548  15.744  18.609  20.504  19.327  19.647
   16.173  15.070  17.870  20.298  18.160  18.379  14.558  16.426  17.307  17.100
   14.912  17.657  21.031  18.669  17.941  21.597  16.935  17.351  16.096  13.872
   13.500  14.168  18.404  21.152  21.139  17.593  19.931  18.114  12.667  14.176
   13.959  13.634  15.334  16.993  21.455  16.174  16.760  14.499  14.667  15.607
   16.378  11.930  14.012  19.732  19.234  18.653  19.824  20.015  16.844  19.405
   16.729  12.589  13.884  13.485  15.475  16.540  15.165  17.724  20.023  17.825
   13.129  11.747  13.291  13.884  16.038  13.215  16.318  17.162  18.461  16.876
   12.895  17.570  11.618  15.732  10.857  12.374  10.575  12.682  13.371  14.535
    8.145   9.962  10.070  12.249  10.317   9.958   7.841   6.863  11.861  11.355

    0.150  20.018
   16.885  17.483  20.275  19.541  18.611  16.903  18.220  20.108  18.529  18.521
   16.503  15.295  17.826  21.109  17.590  18.189  14.046  16.369  16.977  17.192
   14.967  18.183  21.175  17.700  17.303  20.782  15.980  18.297  15.424  13.409
   13.474  15.351  18.526  20.392  21.840  18.621  19.875  17.845  13.293  13.758
   14.251  13.219  15.967  16.711  21.328  16.288  16.422  14.296  15.480  15.238
   16.746  12.967  13.945  19.204  19.125  17.376  19.429  19.627  16.427  18.695
   16.039  12.513  13.137  14.967  15.085  15.135  13.802  16.945  19.143  17.187
   13.306  11.351  12.728  13.778  14.608  13.821  17.132  18.014  18.057  17.101
   13.750  16.448  11.159  14.708  11.788  12.778  10.243  13.289  13.059  14.141
    8.472  10.552   9.895  11.826   9.516  10.748   8.190   7.099  12.258  11.370

    0.200  20.047
   17.315  17.527  21.132  19.863  18.563  16.739  17.126  19.223  18.672  18.977
   16.821  15.048  17.322  20.991  18.644  17.822  13.740  17.222  16.653  17.049
   13.793  17.478  20.600  17.994  17.550  20.041  16.291  17.812  15.753  14.680
   13.404  15.349  18.849  20.785  22.504  18.333  20.172  18.476  13.683  13.897
   13.781  13.033  16.730  17.210  20.030  15.422  17.080  13.355  14.665  15.577
   16.709  11.938  14.684  19.050  18.470  17.357  18.802  19.884  16.740  18.730
   16.096  13.147  12.510  14.380  15.601  14.470  13.728  16.596  19.509  17.459
   12.933  10.339  12.898  13.627  14.959  13.827  17.348  18.701  17.905  17.213
   14.621  16.691  10.550  14.207  11.178  12.544  10.300  13.385  11.956  14.047
    7.585  10.362  10.164  11.246   9.133  10.212   7.633   7.065  11.759  10.242

    0.250  19.969
   17.756  17.196  20.317  20.853  20.322  17.085  17.025  18.916  18.761  19.648
   16.757  15.960  18.965  20.418  17.891  18.233  14.822  17.558  16.783  16.014
   14.619  17.894  19.606  17.784  16.843  20.063  17.376  17.202  15.410  15.580
   14.372  15.413  18.796  20.845  21.834  18.171  21.535  17.121  13.389  13.747
   14.711  14.147  16.813  17.526  20.460  14.735  17.381  14.498  14.244  15.725
   17.217  11.349  14.178  18.842  19.021  17.813  18.531  19.993  16.351  18.191
   16.116  14.195  12.359  14.496  14.893  15.549  14.594  16.274  20.336  17.435
   12.563  10.114  12.654  12.273  16.024  14.246  16.667  18.496  17.945  17.942
   13.879  16.925  10.676  14.321  11.427  13.084  10.866  12.626  11.635  14.190
    7.487  10.804  10.821  10.970   8.734  10.702   8.226   7.479  11.585  11.437

    0.300  20.265
   17.990  16.759  20.061  20.228  20.898  16.719  18.124  18.649  19.250  19.075
   16.642  15.051  18.915  21.200  17.290  17.877  14.576  16.834  16.450  16.979
   15.220  18.835  19.838  17.387  16.682  19.531  17.469  17.520  15.783  16.217
   14.096  16.144  18.528  20.685  21.619  17.769  21.847  17.754  13.235  13.738
   14.607  14.609  15.893  17.069  20.654  14.414  16.322  15.079  14.552  16.323
   17.134  12.545  14.883  18.788  18.251  16.761  17.718  19.663  16.126  18.216
   16.550  13.241  12.498  14.657  14.125  16.651  14.987  16.394  20.670  16.795
   13.459  11.064  12.277  13.386  15.876  14.909  17.297  18.080  18.037  16.805
   14.254  15.788  11.237  14.186  11.526  13.394  10.732  12.424  12.023  14.040
    7.576  10.774  11.265  10.789   8.769  10.680   8.221   6.750  11.312  11.385

    0.350  20.511
   18.360  16.094  19.877  20.872  19.889  17.017  18.500  18.699  19.246  20.943
   17.714  14.947  18.185  22.425  16.964  16.526  14.828  17.569  17.190  17.218
   15.677  18.787  19.811  18.039  16.905  19.316  17.278  17.327  16.080  15.325
   14.608  16.161  17.986  21.260  20.987  18.156  22.785  17.858  12.801  14.680
   14.781  14.371  16.660  17.936  20.916  14.769  16.295  14.769  14.816  16.491
   17.243  11.964  15.286  17.600  19.014  17.138  18.108  18.586  16.292  18.591
   17.271  13.738  12.541  14.902  14.049  15.900  14.900  16.780  20.380  18.100
   13.846  11.306  12.917  13.611  15.949  13.500  17.172  17.793  17.791  15.956
   13.815  15.728  11.300  15.193  11.442  12.311  11.097  12.249  12.958  13.451
    7.104  10.956  11.326  10.283   8.973  11.304   8.650   6.678  11.532  11.931

    0.400  19.825
   18.859  16.778  20.080  20.481  21.335  16.869  18.515  19.500  19.444  20.635
   19.084  14.167  19.541  22.298  16.509  17.074  15.149  18.356  16.948  17.123
   16.327  18.562  19.488  18.315  17.238  18.822  16.912  17.794  15.014  15.666
   13.932  16.673  18.900  22.360  20.758  18.336  23.729  18.835  12.494  14.352
   14.099  15.689  17.196  18.197  20.912  14.925  17.520  14.893  15.437  17.201
   16.811  13.116  15.792  17.706  18.335  16.445  17.620  18.265  16.189  18.048
   18.155  14.598  11.917  14.675  13.915  16.589  14.926  17.086  20.842  17.790
   13.730  11.506  13.862  14.528  14.796  12.865  18.010  17.552  17.117  15.948
   12.921  15.566  11.533  15.471  12.131  13.089  11.085  11.637  14.354  13.292
    7.425   9.902  11.013  10.596   9.339  10.681   9.644   5.678  11.030  11.639

    0.450  19.285
   19.021  16.810  19.578  20.164  20.768  17.957  18.712  19.234  19.140  20.232
   19.196  14.356  18.828  21.743  16.138  17.076  14.965  18.695  17.215  17.616
   16.791  18.427  19.951  18.192  17.149  18.718  16.649  17.353  14.660  15.364
   14.667  16.879  19.588  22.529  20.597  17.285  22.993  19.847  11.615  14.359
   14.132  16.084  17.486  18.057  20.895  16.191  17.296  15.232  15.163  16.696
   17.199  13.816  15.499  17.485  17.367  15.827  18.043  18.439  16.063  17.536
   18.093  13.823  12.005  14.119  13.813  16.884  14.352  18.434  20.853  17.012
   12.770  11.348  13.289  15.059  15.476  13.523  18.018  16.926  17.411  15.050
   12.198  15.616  10.783  15.297  11.759  13.296  11.137  11.427  13.844  12.747
    7.591   9.404  10.073  10.582   9.278   9.128   8.291   5.992  10.983  12.289

    0.500  18.934
   18.987  16.275  19.586  19.784  20.645  17.947  17.992  20.073  19.850  20.271
   18.423  14.332  19.211  21.402  16.704  17.403  14.981  19.188  16.961  17.979
   16.786  19.030  20.083  17.638  17.112  18.023  17.070  17.736  14.887  15.910
   14.217  16.409  19.134  21.772  20.503  17.427  21.743  19.873  11.784  15.210
   14.053  16.834  17.873  19.316  20.653  16.535  17.156  16.274  15.577  16.755
   17.058  14.193  14.653  18.328  17.573  16.248  18.453  18.251  16.485  17.244
   17.786  13.847  13.016  14.120  13.635  16.584  14.062  19.241  20.115  17.659
   12.525  11.617  13.086  14.273  14.454  12.658  17.630  17.294  17.840  16.039
   11.946  14.905   9.989  14.554  12.797  12.185  11.487  10.823  13.760  12.740
    6.803   9.836  10.184  10.133   9.637   9.269   8.426   5.891  10.747  12.346

    0.550  18.685
   19.061  15.944  20.693  18.999  20.709  17.101  17.691  19.628  20.404  20.684
   17.561  14.840  20.325  21.764  16.861  17.592  15.154  19.295  15.835  18.380
   17.209  18.502  20.748  17.977  17.796  18.216  17.477  18.970  15.584  15.250
   13.997  17.522  18.167  21.566  20.264  18.066  21.493  19.717  12.425  15.229
   15.156  16.316  17.254  20.398  20.354  15.621  16.276  17.435  15.021  15.744
   16.123  15.167  15.182  19.867  17.606  16.504  18.836  18.363  16.705  17.677
   17.751  13.798  13.331  14.691  13.991  15.713  14.563  18.136  20.532  18.157
   12.991  10.852  13.071  15.176  13.924  12.527  16.788  18.000  16.826  16.640
   12.655  15.276  10.464  14.809  12.708  12.505  10.649  10.827  12.590  13.305
    7.655   9.734  10.920  10.201   9.671   8.473   8.354   6.145  11.042  12.587

    0.600  18.698
   19.565  16.515  20.106  19.541  19.475  17.219  18.783  20.032  20.543  20.110
   17.069  14.143  20.569  21.662  17.172  16.993  15.463  18.845  16.563  18.351
   17.352  17.984  21.082  18.041  18.098  17.982  18.240  18.359  15.825  15.992
   13.362  17.210  18.389  21.113  20.519  18.104  21.978  20.996  13.032  14.758
   15.023  15.200  17.398  20.013  19.550  16.065  15.458  17.747  15.870  14.500
   15.797  15.589  15.458  18.965  17.029  15.244  18.520  19.269  17.316  17.899
   17.949  13.817  12.690  13.748  14.867  15.456  14.152  19.088  20.294  17.993
   12.093  10.875  13.842  15.919  14.255  12.888  16.352  16.520  16.113  16.152
   12.079  14.653   9.624  15.048  12.483  12.606  11.234  10.815  12.818  14.675
    7.066   9.230  10.338  10.288   9.065   8.751   8.994   6.912  11.977  11.497

    0.650  18.380
   18.755  16.931  20.930  21.236  18.717  17.467  19.496  20.326  20.121  19.500
   16.489  13.267  21.068  21.433  16.351  16.959  16.301  18.840  17.144  18.443
   17.150  17.488  20.757  17.765  18.076  18.066  18.177  17.388  15.349  16.468
   13.651  17.862  18.150  20.547  19.900  18.446  22.278  20.546  13.770  14.246
   15.089  14.751  17.882  19.588  19.447  16.331  16.588  17.626  14.869  14.049
   16.009  14.946  15.453  19.351  16.465  16.547  18.239  18.632  17.503  18.652
   17.510  14.491  12.260  13.619  15.584  14.884  14.852  18.750  19.371  17.852
   11.883  10.942  13.344  15.944  14.121  12.717  16.662  16.868  16.873  15.945
   11.757  14.075   8.727  14.125  12.217  12.172  12.236  12.309  13.345  12.892
    7.334   8.733  10.254  10.257   9.022   8.717   9.471   7.505  12.395  11.668

    0.700  17.629
   19.053  16.685  20.312  21.564  18.598  17.754  20.293  21.583  20.087  18.960
   16.954  13.786  21.328  21.553  17.074  16.743  17.951  18.873  16.775  18.682
   17.375  16.977  21.220  17.947  18.661  17.839  17.584  16.969  15.450  16.171
   12.492  18.197  18.792  19.573  20.130  19.119  21.327  20.304  13.684  14.767
   15.248  14.630  18.001  19.718  20.496  16.272  16.073  17.004  14.053  14.731
   15.512  14.577  13.639  19.926  16.767  16.017  17.429  18.471  17.271  18.733
   16.510  14.279  12.271  13.455  14.818  14.965  15.762  18.699  19.231  18.382
   11.692  10.449  13.213  14.808  13.699  13.559  15.748  17.675  17.406  15.905
   12.383  13.676   8.645  14.143  11.810  12.416  11.380  12.144  13.813  12.223
    8.916   9.584   9.479  10.558   8.559   8.513   9.777   7.742  12.939  11.144

    0.750  17.895
   19.091  16.391  19.023  20.901  18.798  18.669  20.229  21.886  20.629  19.426
   16.619  13.577  20.799  21.272  16.516  16.668  17.057  19.088  16.587  19.002
   16.485  16.118  21.407  18.032  18.594  18.794  17.680  17.307  14.219  16.506
   12.383  17.406  17.712  20.373  20.305  18.110  21.880  20.738  14.213  14.327
   15.184  14.636  17.422  19.207  19.965  16.456  16.485  17.382  14.607  14.552
   15.315  14.926  13.546  19.231  17.115  16.431  18.095  18.720  16.704  18.606
   16.542  13.749  12.356  13.781  14.467  14.706  16.467  19.972  18.872  18.265
   11.923  10.629  13.018  13.837  13.694  13.736  16.614  18.487  17.178  16.001
   11.559  13.502   8.547  14.295  11.585  12.324  11.207  12.478  12.937  11.617
    9.261   9.505   9.352   9.856   8.419   7.722   8.970   8.115  11.783  11.198

    0.800  18.726
   17.815  16.794  18.984  21.008  19.033  18.591  20.461  20.331  19.845  19.298
   16.584  14.149  20.609  21.898  16.078  17.232  16.852  19.270  16.555  18.843
   16.869  16.601  22.177  16.848  18.986  18.927  18.884  17.039  13.227  15.741
   13.626  17.151  17.276  20.912  20.966  17.591  21.955  21.880  13.918  14.062
   15.013  15.506  16.636  19.051  19.768  16.705  16.678  18.392  14.064  14.713
   14.543  14.758  14.411  19.920  16.188  16.722  17.451  19.255  17.147  18.192
   16.978  13.735  13.201  12.834  15.621  14.699  17.014  19.581  19.392  18.076
   11.088  10.440  11.941  13.474  14.197  13.830  16.731  18.424  17.262  16.314
   10.057  13.783   9.037  14.226  11.865  12.498  11.354  12.823  12.405  11.460
    9.137   9.683   9.856  10.328   7.629   7.725   8.114   9.068  11.169  11.777

    0.850  17.744
   17.492  16.867  19.754  21.465  19.801  17.593  20.575  21.278  18.952  20.032
   17.569  13.757  21.010  21.272  16.311  18.208  17.327  19.962  16.321  18.785
   17.052  16.883  21.729  17.382  18.905  18.661  19.851  17.671  13.871  16.096
   13.871  16.803  17.710  19.564  21.304  18.496  22.100  22.561  13.743  14.469
   14.532  16.044  16.228  19.897  19.774  16.689  16.278  18.924  14.257  15.532
   14.380  14.567  14.609  19.750  16.691  15.683  17.920  19.576  16.701  18.430
   15.434  13.270  12.044  11.891  15.549  15.437  16.633  18.991  19.393  18.213
   11.597  10.912  11.669  13.402  13.547  13.507  16.684  18.473  17.665  16.395
    8.738  13.572   8.925  13.939  13.051  12.291  11.689  13.566  12.434  11.649
    9.074  10.005  10.407  10.461   7.772   5.958   9.201   9.175  11.888  12.212

    0.900  17.412
   17.783  16.997  18.722  21.684  19.587  17.694  20.227  21.489  19.281  20.723
   17.592  14.203  20.433  21.571  16.548  18.856  17.747  19.651  15.957  17.911
   17.616  16.532  20.979  18.176  19.143  18.440  19.823  16.779  13.283  16.351
   14.289  17.826  18.250  20.328  22.584  18.622  21.694  21.943  14.537  14.981
   15.039  14.738  17.118  19.520  18.937  17.157  15.960  18.726  15.351  14.885
   13.847  14.251  13.900  20.757  17.404  15.887  18.455  19.238  16.989  18.201
   15.365  12.834  11.227  12.228  15.709  15.580  16.538  18.752  19.959  19.003
   11.412  11.610  13.054  13.142  13.894  14.470  17.383  17.737  18.452  17.415
    9.754  13.603  10.463  14.189  13.028  11.519  12.562  13.573  12.167  12.422
    8.572  10.527  11.247  10.702   7.753   6.279   9.263   9.730  11.265  12.580

    0.950  17.753
   19.093  17.796  18.193  22.471  18.607  18.371  20.057  20.995  19.324  19.816
   16.000  15.220  20.340  21.361  16.571  18.797  18.534  19.378  15.301  17.958
   17.692  16.932  22.416  19.024  18.159  18.869  19.593  16.097  13.930  16.191
   13.721  18.419  17.191  20.044  22.364  17.794  20.249  21.566  14.299  14.333
   14.871  14.418  16.783  19.519  18.467  17.276  16.634  18.858  16.332  14.532
   14.014  13.972  13.684  20.680  17.624  16.072  19.424  19.276  16.206  18.597
   15.159  14.071  11.965  11.939  15.052  16.606  16.450  18.468  20.535  18.328
   11.341  11.800  13.773  12.781  12.851  14.364  16.879  18.863  18.223  16.918
   11.009  13.496  11.287  14.639  13.397  10.827  11.878  13.696  11.805  13.046
    8.432  10.179  11.675  10.043   8.398   6.562   9.898   9.948  11.590  12.492

    1.000  17.639
   18.631  18.597  18.109  22.217  19.002  18.441  20.295  21.103  20.083  20.259
   15.494  15.292  19.343  20.844  16.478  19.399  19.374  18.966  15.166  18.247
   17.495  17.439  22.189  19.811  18.459  18.700  20.467  16.313  14.340  16.800
   14.381  18.399  18.262  19.209  22.555  18.212  20.600  21.915  13.454  14.059
   14.890  13.529  16.297  18.398  17.955  16.756  16.064  19.011  15.831  15.025
   13.665  14.600  14.201  19.298  17.100  16.028  19.877  19.486  17.275  18.210
   15.072  13.049  11.187  12.291  15.148  17.330  16.768  18.345  21.218  18.349
   11.254  12.247  13.969  12.737  13.427  13.508  17.135  18.882  19.283  16.972
   11.502  14.411  10.824  13.569  13.748  10.711  10.775  14.278  12.269  13.625
    7.831  11.305  11.652  10.324   8.109   6.073  10.214  10.584  11.767  12.284

    1.050  17.705
   18.763  18.186  17.937  23.634  19.741  18.406  21.404  21.160  19.583  19.692
   15.614  14.920  19.971  20.774  16.963  20.089  19.954  19.999  16.572  18.354
   17.642  17.746  22.012  19.522  18.082  18.843  20.300  15.533  14.281  16.516
   14.197  17.651  18.618  19.153  21.135  19.043  20.471  22.111  13.796  14.681
   14.584  14.064  15.766  18.819  17.767  17.492  17.396  19.532  15.315  14.957
   13.722  14.645  14.319  19.012  15.543  16.094  19.077  20.511  17.057  17.934
   15.299  13.574  11.113  11.463  15.040  17.258  17.285  18.530  20.863  18.896
   11.581  11.881  12.872  14.032  12.892  13.581  17.730  18.737  19.209  17.694
   11.574  14.125  10.965  13.788  14.610  11.309  11.271  14.276  13.031  13.621
    8.349  10.252  10.685  10.151   8.923   5.858  10.047   9.717  11.355  12.034

    1.100  18.216
   19.519  17.517  18.000  23.931  19.736  19.169  21.548  22.151  19.861  19.999
   16.057  14.736  20.628  19.795  17.679  20.082  20.825  20.454  17.973  18.107
   17.415  17.777  20.866  19.066  17.225  18.278  19.892  15.690  14.608  16.700
   13.700  17.777  18.311  18.553  21.079  19.682  20.305  21.001  14.598  14.368
   14.776  14.558  16.965  18.929  16.624  17.345  17.044  19.904  14.073  16.028
   13.598  15.176  15.248  18.932  16.294  16.063  19.858  20.788  17.277  17.551
   16.042  12.647   9.812  11.521  15.077  16.906  17.124  18.779  21.044  19.675
   10.930  12.240  11.331  13.833  12.162  13.454  17.472  18.625  18.351  18.545
   10.892  14.814  10.896  14.062  13.593  11.351  11.355  14.747  14.074  13.471
    7.785  10.863  11.258  10.502   9.013   6.495   9.518  10.712  11.192  12.497

    1.150  18.419
   19.170  16.442  17.260  24.750  20.092  19.730  21.331  23.422  19.543  20.314
   15.538  14.272  19.777  20.910  18.215  19.416  20.187  20.115  17.851  18.816
   17.031  18.150  20.867  19.470  17.549  18.390  19.624  16.324  14.922  16.268
   13.884  17.747  18.051  18.365  21.622  19.317  19.696  21.014  15.202  14.021
   15.100  15.153  17.411  19.325  16.566  16.863  17.196  19.802  14.272  16.135
   13.324  15.736  14.982  18.404  15.817  15.529  18.903  21.137  17.454  17.789
   16.069  12.593  10.741  12.927  14.427  16.680  16.952  19.204  20.470  19.795
   11.061  12.242  11.472  13.905  12.754  13.425  18.388  18.770  18.981  18.393
   10.429  14.952  10.497  13.830  12.558  11.051  10.810  14.181  14.099  12.980
    7.135  10.757  10.727   9.932   8.835   7.140   9.778  10.165  11.196  12.784

    1.200  18.256
   18.518  17.446  17.812  25.095  19.968  18.386  21.366  22.537  19.092  19.819
   15.901  13.333  19.412  20.756  18.750  19.833  20.391  19.855  18.518  17.478
   16.840  18.769  21.568  18.664  17.291  18.428  20.372  16.915  14.668  14.962
   13.702  17.432  18.906  17.174  21.459  18.981  19.797  21.688  15.127  14.658
   15.302  15.235  17.536  19.386  16.722  17.476  18.031  19.370  14.482  16.202
   12.257  16.053  15.636  17.899  16.188  15.041  18.359  21.327  17.385  17.515
   16.077  13.085  11.207  11.815  13.830  17.587  17.433  19.118  20.066  19.841
   11.127  12.411  12.081  13.264  13.613  13.390  17.929  18.041  19.150  18.040
    9.536  14.319  10.343  14.264  12.893  11.573  10.287  14.248  13.465  13.041
    7.165  10.979  10.556  10.510   9.967   7.791   8.604  10.375  10.236  13.525

    1.250  17.635
   18.222  17.462  19.573  26.177  19.950  18.642  20.677  22.705  19.240  20.022
   15.351  13.149  19.042  20.327  19.193  20.227  20.880  20.792  17.385  17.438
   16.929  19.411  20.690  18.040  17.274  17.511  20.432  16.663  14.669  14.681
   14.610  17.095  19.128  17.225  20.789  18.626  20.454  21.668  14.681  13.610
   15.366  15.527  17.491  17.866  17.704  17.649  17.939  20.146  13.822  15.344
   11.848  14.962  16.495  17.933  16.312  16.003  17.425  20.387  18.024  16.647
   15.994  13.246  11.444  12.497  13.826  17.327  17.329  19.779  20.004  19.818
   12.122  12.861  11.917  13.901  14.090  13.324  17.763  18.098  19.014  17.890
    9.714  14.249  10.491  13.674  12.477  11.406  10.806  13.322  12.777  13.061
    7.565  10.227  10.577  11.100  10.242   9.009   8.638   9.621   9.456  13.481

    1.300  18.844
   18.339  16.985  20.154  26.025  19.883  19.626  19.731  22.578  19.992  19.739
   15.770  13.921  19.880  19.787  19.702  21.146  21.011  20.424  18.231  17.285
   16.940  20.066  21.301  16.997  17.645  17.568  20.378  16.464  14.956  14.957
   13.862  16.791  18.860  17.444  19.621  18.473  20.617  21.361  14.855  12.773
   15.292  14.955  17.503  18.055  17.466  17.527  18.531  20.719  14.915  14.750
   12.681  14.246  15.962  17.911  15.903  16.027  17.619  20.165  17.858  17.254
   15.279  14.096  11.744  12.433  14.041  17.540  17.486  19.860  19.362  18.694
   12.121  14.255  11.776  13.268  13.819  14.054  17.168  17.691  17.909  18.745
    9.312  14.174  10.456  14.064  12.465  11.366  10.074  13.116  13.118  13.712
    6.649  10.090   9.697  11.433   9.978   8.599   8.500  10.935  10.439  13.465

    1.350  18.194
   19.344  16.645  20.756  26.262  20.081  19.954  19.851  22.542  20.016  19.889
   17.214  13.491  20.402  18.957  19.205  21.659  21.200  20.957  19.200  17.248
   17.000  20.344  20.303  17.078  18.297  17.808  20.271  16.647  15.281  14.473
   14.266  16.556  18.590  17.051  19.346  18.233  19.291  22.374  15.751  12.931
   15.198  14.685  17.657  17.574  17.834  17.592  18.698  19.801  15.426  15.553
   12.471  13.896  15.416  16.847  15.485  15.195  18.301  20.642  17.295  17.371
   15.543  13.588  12.141  12.195  14.707  17.171  17.978  18.995  19.691  18.718
   12.048  14.247  11.969  13.387  13.133  14.516  16.684  18.721  17.699  18.706
    9.197  13.118  10.845  13.930  13.653  11.082   9.946  13.078  13.695  14.182
    6.342  10.483   8.947  11.753  10.241   8.690   9.473  12.251  10.655  12.086

    1.400  17.648
   19.396  15.516  20.679  26.407  19.059  19.306  20.250  22.385  19.476  19.036
   17.314  14.196  21.250  19.074  19.115  22.067  22.093  20.663  19.299  17.781
   17.188  19.731  20.954  17.201  18.185  19.131  20.234  16.885  15.298  15.509
   12.715  17.070  18.787  16.793  19.391  19.052  19.401  22.891  15.590  13.608
   14.991  14.786  16.991  17.082  17.426  17.335  18.622  19.989  14.857  15.496
   12.525  14.135  14.097  17.816  16.617  14.988  18.660  20.605  17.209  17.199
   15.851  12.976  12.054  11.773  14.572  16.656  18.347  19.543  19.426  19.023
   11.432  14.428  12.310  13.855  13.333  14.415  16.511  18.592  17.815  19.085
    9.359  12.593  11.369  14.176  12.742  11.323  10.257  12.783  13.910  14.211
    7.231  10.093   9.118  11.713  10.035   7.950  10.469  11.975  11.312  12.473

    1.450  16.915
   19.086  14.746  20.285  25.064  18.418  19.974  19.673  22.407  18.734  19.842
   17.101  15.012  20.634  18.602  19.001  22.182  22.032  21.642  19.737  17.786
   17.314  19.568  20.467  18.375  18.938  19.259  21.073  17.246  14.803  14.783
   11.999  18.437  18.269  17.128  18.156  18.706  19.369  22.794  14.860  13.294
   14.655  14.692  17.242  16.829  18.455  16.572  19.386  20.345  15.287  14.984
   13.023  13.317  13.836  17.909  15.758  14.654  18.391  19.942  18.094  17.600
   15.789  13.832  13.003  12.535  14.671  16.590  17.727  19.774  18.352  18.584
   10.743  14.789  12.469  14.112  14.011  13.582  16.516  19.640  18.794  19.022
    9.068  12.986  13.242  14.047  12.161  12.504  10.917  13.639  14.231  14.163
    7.377  11.363  10.298  12.193  10.053   8.917  10.924  11.241  11.241  11.989

    1.500  15.769
   19.407  14.831  20.215  25.760  18.818  20.680  19.004  22.747  18.172  19.739
   16.491  15.540  20.604  18.809  19.594  22.759  22.258  22.664  20.667  18.200
   17.432  20.473  20.014  17.979  18.062  19.095  22.627  17.051  14.994  15.680
   12.658  18.600  18.137  17.060  18.012  18.139  19.987  22.787  15.574  13.235
   14.751  15.377  17.268  16.888  19.096  17.569  19.914  20.707  16.245  14.257
   14.580  12.127  12.876  18.046  15.610  15.338  18.358  19.228  17.722  17.729
   15.196  15.116  12.344  11.723  15.561  17.194  18.260  20.632  18.902  18.580
   10.730  14.813  12.421  13.652  14.439  13.051  16.275  19.465  18.426  19.496
    9.112  13.353  12.751  15.066  11.788  12.190  11.008  12.235  14.637  13.916
    7.038  11.568  10.447  12.199  10.532  10.593  11.468  11.017  11.339  12.135

    1.550  15.733
   18.864  15.474  20.103  25.659  19.485  20.499  19.441  22.911  17.659  19.330
   15.841  15.927  21.830  19.104  19.301  22.656  22.644  22.284  19.115  18.310
   18.112  21.099  19.445  17.914  17.791  19.130  23.227  17.561  16.081  16.064
   14.082  18.371  18.430  18.148  18.788  17.314  20.830  23.285  14.601  14.006
   14.994  15.235  16.793  17.662  20.144  17.876  20.895  19.778  15.444  14.403
   14.031  12.357  13.363  18.509  15.155  15.059  18.424  18.438  16.647  17.232
   15.289  14.847  11.791  11.346  15.269  17.432  17.460  21.005  18.722  17.995
   10.671  15.366  12.085  13.771  14.573  14.030  17.000  18.912  18.739  19.246
    8.885  13.221  13.276  15.464  12.297  11.071  11.342  12.318  14.256  14.068
    7.444  12.331  11.370  11.379  10.922   9.837  11.106  11.935  11.038  11.675

    1.600  15.789
   18.848  16.333  19.777  25.037  19.348  21.074  20.239  21.985  17.811  19.682
   16.241  16.798  21.037  19.464  18.249  22.457  23.921  23.317  17.954  17.801
   18.459  19.891  19.062  18.301  16.861  18.512  22.973  17.341  15.833  15.232
   14.554  17.922  18.275  17.530  18.328  17.619  21.225  23.907  14.622  13.641
   15.323  15.485  18.142  17.866  20.380  17.735  20.436  19.752  15.265  15.997
   14.883  12.258  14.072  19.363  15.238  14.848  17.622  17.685  16.421  16.556
   15.174  13.963  12.493  11.809  14.613  16.779  18.410  20.126  18.822  18.241
   11.313  15.293  13.094  14.175  14.782  13.973  18.099  19.405  19.524  19.371
    9.717  14.211  13.370  15.172  13.248  11.035  11.361  12.476  13.952  13.500
    8.190  12.300  11.098  11.345  10.875   9.979  10.657  11.460  10.825  10.888

    1.650  16.037
   18.043  16.597  19.624  24.722  18.367  21.212  20.756  21.740  18.702  19.476
   16.438  16.809  20.038  20.552  17.872  23.014  23.715  23.358  17.781  18.341
   19.047  19.927  19.424  18.226  16.953  18.114  23.464  16.436  16.107  13.664
   14.835  16.349  18.073  17.503  18.331  18.331  22.217  22.962  13.785  11.796
   14.761  16.122  17.747  17.149  19.340  18.836  21.661  19.307  15.994  17.207
   14.888  10.642  14.162  18.839  15.402  15.189  17.572  18.068  16.702  17.578
   14.345  14.039  12.235  11.249  15.145  18.114  18.794  20.062  19.216  17.619
   10.919  15.168  14.077  14.238  14.598  13.051  16.923  18.818  18.398  18.876
    9.308  14.112  12.673  14.596  13.026  11.424  11.906  11.464  12.877  13.343
    8.091  12.073   9.369  10.057  10.893  10.339  10.898  11.905  10.987  11.252

    1.700  16.153
   18.334  16.872  19.806  24.133  18.416  20.877  20.552  22.112  19.015  19.398
   17.254  16.474  20.845  19.422  17.782  22.757  23.056  23.106  18.673  18.386
   18.938  19.243  20.297  17.986  17.623  18.073  24.348  17.111  17.069  13.622
   14.537  16.775  18.206  17.155  18.496  18.181  23.024  23.725  14.852  11.287
   14.966  15.963  18.332  16.798  19.515  18.565  20.567  19.462  16.594  16.703
   15.002  11.188  15.085  18.966  15.417  15.118  17.740  17.641  17.390  18.006
   14.717  14.035  12.293  11.141  15.216  19.821  18.537  19.839  18.832  17.392
   11.510  14.601  14.395  13.991  13.865  13.490  16.697  19.664  18.083  17.775
    9.820  14.366  12.651  13.860  12.845  12.717  12.048  12.550  12.587  13.527
    7.910  12.352   8.883  10.979  11.019   9.510  10.993  12.199  10.988  11.113

    1.750  15.550
   18.878  16.480  19.244  24.243  17.687  21.314  21.530  21.033  18.927  19.619