
This full-field turbulence file was generated by TurbSim (v1.40, 12-Sep-2008) on 27-May-2021 at 14:31:43.

 | w-comp |  Y  x  Z  | Grid Resolution (Y x Z) | Time-step | Hub Elev | Mean U |
            10    10     15.556     15.556          0.050      89.60     15.00

 Z Coordinates (m):
  -70.000 -54.444 -38.889 -23.333  -7.778   7.778  23.333  38.889  54.444  70.000

 Y Coordinates (m):
  -70.000 -54.444 -38.889 -23.333  -7.778   7.778  23.333  38.889  54.444  70.000

    0.000  -1.475
    0.532   1.466   0.307  -1.095   0.009   2.230  -1.029   0.016  -0.191   1.162
    0.493  -1.521   1.614   2.324   0.146  -0.618   0.252   1.768  -0.757   0.316
   -0.782  -2.658   0.451  -1.357   0.849  -0.450  -1.499  -0.012   1.653   0.453
    1.103   0.308  -0.581   1.848   0.565   2.397  -1.108  -0.438  -1.765  -0.319
   -0.580  -0.001   0.921  -0.622   0.397  -0.516  -0.252   0.042   1.181  -0.418
   -0.499   0.372  -0.050  -1.950  -0.832   0.263   0.349   1.173  -0.201  -0.253
    0.460   1.694   0.968  -0.551  -1.021   2.845  -1.293   0.413   0.510   0.347
   -0.052   2.021   0.643   2.516   0.285   0.760  -0.680   0.226  -0.066  -0.231
    0.259   0.034  -0.891  -0.070   0.657  -2.204   0.718   0.735   1.182  -0.735
   -0.049  -1.279   2.013   0.840   1.576  -0.713   1.657  -1.224   0.116   0.240

    0.050  -1.653
    0.302   1.279  -0.110  -1.858  -0.143   1.886  -0.574  -0.231  -0.392   1.623
    0.384  -1.760   1.341   1.395   0.361  -1.073   0.310   1.540  -1.107   0.799
   -0.729  -2.361  -0.175  -0.850   1.222  -0.042  -1.264  -0.521   0.956  -0.336
    1.118   0.714  -0.473   1.753   0.225   2.548  -0.974  -0.407  -1.137   0.191
   -0.737  -0.614   1.677  -0.525   0.077  -0.184  -0.034  -0.218   0.837  -0.315
   -0.489   0.844  -0.298  -0.953  -0.629  -0.331   0.466   1.585  -0.340  -0.416
    0.751   1.931   1.608  -0.375  -0.867   2.094  -0.929   0.616   0.553   0.115
    0.591   1.534   0.744   2.569   0.234   0.896  -0.819   0.155  -0.134  -0.086
    0.932  -0.662  -1.472  -0.760  -0.644  -1.716   0.654   0.202   0.757  -0.518
   -0.276  -0.727   2.356   0.510   2.043  -0.424   0.821  -1.672   0.638   0.565

    0.100  -1.470
    0.026   1.273  -0.671  -1.224   0.622   1.684  -0.070   0.931   0.277   1.845
    0.810  -1.164   1.120   0.694   0.519  -1.279  -0.144   1.135  -1.914   0.545
    0.180  -2.049  -0.747  -0.360   0.830  -0.052  -1.332  -0.889   0.444   0.564
    0.496   0.542  -0.533   1.965  -0.085   1.924  -1.210  -0.223  -1.216   0.227
   -0.674  -0.403   1.082   0.426  -0.481   0.211  -1.490   0.242   0.739  -0.094
   -0.688   0.366  -0.329  -0.320  -1.525  -1.060  -0.057   1.188   0.130   0.241
    0.563   2.492   0.951  -0.054  -0.382   2.501  -0.835   0.355   1.390   0.883
    1.421   1.442   0.126   1.673  -0.297   0.767  -1.520   0.076   0.190  -0.502
    0.999  -0.995  -0.751  -1.076  -1.756  -1.985   0.959   0.480   0.393  -0.055
    0.122  -0.608   2.089   0.688   2.375  -1.033   0.715  -1.416   0.369   0.609

    0.150  -2.077
   -0.083   1.172  -0.382  -1.353   0.254   1.658   0.073   1.002   0.271   1.269
    0.969  -1.340   0.860   0.623   0.717  -1.131   0.000   1.483  -1.885   0.510
   -0.311  -1.889  -0.904  -0.467   0.455   0.243  -0.840  -1.920  -0.014   0.870
   -0.085   0.050  -0.990   1.942  -0.226   1.324  -0.514  -0.405  -1.950   0.118
   -0.672  -0.692   1.617   0.482  -0.080   0.587  -1.238   0.997   0.190  -0.048
   -1.100   0.142  -1.088  -0.575  -0.748  -0.634   0.493   0.686   0.508   0.412
   -0.051   1.930   0.856  -0.062  -0.515   2.151  -1.121   0.107   1.511   0.439
    0.443   1.504  -0.458   1.345  -0.568   0.476  -1.631   0.882  -0.248  -0.188
    0.595  -0.324  -0.489  -1.460  -1.124  -1.766  -0.041   0.658  -0.123  -0.564
    0.465   0.310   1.764   0.049   2.029  -1.421   1.054  -1.501   0.118  -0.133

    0.200  -1.455
   -0.173   1.461   0.236  -0.670   0.022   1.452  -0.006   0.663   0.416   1.715
    1.052  -1.175   0.665   0.292   0.678  -1.572  -0.583   1.355  -1.831   0.163
   -0.253  -2.376  -0.658  -0.442   0.469   0.246  -0.614  -2.184  -0.356   0.993
   -0.140  -0.533  -0.243   0.973   0.392   2.191  -0.826  -0.118  -1.782   0.285
   -0.533  -0.727   1.294   1.128  -0.519   0.266  -0.529   1.026   0.699  -0.657
   -0.406   0.724  -0.287  -0.434   0.329  -0.190   1.013   1.497   1.082   0.619
   -0.031   1.690   1.090   0.040  -1.110   1.512  -1.472   0.371   1.756   0.417
    0.279   0.343   0.202   1.713  -0.670   0.235  -2.118   1.087  -0.401  -0.216
    0.481  -1.341  -0.079  -1.796  -0.943  -1.113  -0.786   0.696  -0.590  -0.331
    0.443   0.208   1.983   0.189   1.361  -0.668   0.528  -0.757   0.327  -0.880

    0.250  -2.101
    0.258   2.054   0.650  -0.343   0.283   1.173  -0.195  -0.048   0.211   1.424
    1.343  -0.997   0.265  -0.507   0.839  -1.153  -0.940   1.590  -1.815   0.172
   -0.433  -2.756  -0.480  -0.509   1.454  -0.138  -0.822  -1.700  -0.673   1.673
   -0.085  -0.448  -0.072   0.615  -0.209   1.109  -0.804   0.198  -1.197   0.015
   -0.724  -0.973   1.149   0.559  -0.878  -0.134  -0.944   1.183   0.427  -1.343
   -0.428   0.851  -0.551  -0.210   0.862  -0.507   0.892   1.887   0.827   0.683
   -0.083   1.820   1.224  -0.212  -1.379   1.076  -1.134   0.589   2.387   0.215
    0.145  -0.549   0.462   1.638  -0.385   0.012  -1.751   1.038   0.424  -0.131
    0.767  -1.401   0.705  -1.817  -1.034  -0.906  -0.005   0.509  -1.116   0.632
   -0.042   0.061   1.901   0.320   0.399  -0.495  -0.171  -0.182   0.917  -0.105

    0.300  -2.324
    0.786   1.392   0.731  -0.973  -0.184   1.992   0.630  -0.177  -0.002   0.964
    1.247  -0.867  -0.094  -0.129   1.130  -2.290  -0.257   0.909  -2.268  -0.877
    0.038  -2.981   0.034  -0.070   1.648   0.301  -0.909  -1.613  -0.873   0.784
   -0.516  -0.696  -0.033   0.786  -0.671   0.635  -1.195  -0.039  -1.333   0.366
   -0.540  -0.333   1.026  -0.046  -0.359   0.149  -1.491   1.431   0.096  -1.309
   -1.028   0.605  -1.084  -0.045   1.649  -0.742   1.422   1.720   1.162   0.541
    0.305   1.914   0.771   0.442  -0.813   1.614  -1.241   1.037   2.277   0.045
    0.249  -0.202   0.402   1.033  -0.165   0.479  -1.764   0.580  -0.212  -0.439
    0.549  -0.994   0.757  -1.961  -1.040  -0.623  -0.529   0.120  -0.788   1.193
    0.158  -0.576   2.247   0.340   1.113  -0.290  -0.228  -0.278   0.395  -0.884

    0.350  -2.726
    0.555   0.567   0.535  -1.324  -0.309   2.121   0.662   0.293   0.122   0.597
    0.571  -0.003  -0.080  -1.083   0.977  -2.675  -0.230   1.588  -2.271  -1.048
   -0.578  -2.580  -0.662  -0.448   1.435   0.340  -0.779  -1.464  -0.678   0.176
   -0.813   0.043   0.367   1.274  -0.651   1.618  -1.252  -0.065  -1.378   0.058
   -0.299   0.022   1.329   0.245  -0.064  -0.071  -1.304   1.130   0.225  -0.693
   -0.950  -0.035  -1.546   0.029   1.911  -0.577   1.181   1.648   1.071   0.497
    0.688   1.654   1.121   0.451  -1.323   0.982  -1.240  -0.338   1.684  -0.225
    0.838   0.018   0.325   1.351   0.005  -0.658  -2.268   0.422  -0.428  -0.045
    1.087  -0.887   0.791  -1.731  -1.570  -1.042  -0.227  -0.004  -0.446   1.093
   -0.458  -0.763   2.252  -0.183   0.992  -0.609  -0.365   0.328   0.189  -0.485

    0.400  -2.575
    0.316  -0.052   0.331  -1.814  -0.136   1.976   0.878  -0.260   0.006   0.803
   -0.496   0.273  -0.085   0.033   1.047  -2.727   0.312   1.412  -2.729  -0.669
   -0.276  -2.321  -0.441  -0.537   1.430   0.584  -0.317  -1.995  -0.139   0.505
   -1.004   0.456   0.823   1.480  -0.335   0.575  -1.876   0.219  -1.695   0.579
    0.733  -0.036   1.156   0.349  -0.279   0.218  -1.480   1.067   0.305  -0.962
   -1.770  -0.240  -0.718  -0.627   1.037   0.233   1.507   2.380   0.495   0.574
    0.678   1.739   1.086   0.638  -1.203   1.263  -0.415  -0.886   1.338   0.105
    1.223   0.161   0.323   1.468   0.183  -0.736  -1.843  -0.130  -0.568  -0.166
    0.633  -1.084   1.356  -1.439  -0.915  -0.694   0.049  -0.107   0.195   0.678
   -0.148  -1.032   2.491  -0.460   0.462  -1.454  -0.563  -0.146  -0.125  -0.252

    0.450  -2.544
   -0.539   0.566  -0.245  -2.220  -0.189   2.175   0.503   0.345  -0.521   0.794
   -0.686   0.152   0.284   0.506   0.979  -2.703   0.792   1.095  -2.199  -0.740
   -0.354  -1.764  -0.021  -1.377   0.857  -0.069   0.006  -1.158   0.265   0.564
   -0.863   1.100   1.309   0.513  -0.634  -0.348  -1.691   1.242  -1.601   0.697
    0.235  -0.602   0.882   0.139   0.588   0.360  -1.018   0.870   0.172  -1.161
   -1.231   0.653  -0.470  -1.072   0.030  -0.070   1.122   1.854   0.554   0.200
    0.424   1.675   0.685   0.610  -2.146   0.777  -0.527  -0.089   1.365  -0.424
    0.299   0.599   0.010   1.168   0.207   0.239  -1.727  -0.196   0.017  -0.312
    1.106  -0.953   1.533  -1.438  -1.099  -0.722   0.016  -0.457   0.708   0.773
    0.394  -0.025   1.849   0.225  -0.156  -1.212  -0.840  -1.562  -0.498   0.580

    0.500  -2.609
   -0.573   1.266  -0.545  -1.252  -0.129   1.814  -0.343   0.960  -0.573   0.558
   -0.028  -0.319   0.394  -0.024   1.434  -2.572   0.160   0.485  -1.539  -0.603
   -1.374  -1.769   0.618  -1.130   0.470  -0.356  -0.082  -0.406  -0.736   0.211
   -0.736   0.902   1.797   0.157  -0.823   0.090  -1.226   1.607  -1.609   0.421
    1.041  -0.854   0.472   0.773   0.121   0.997  -1.551   1.191  -0.190  -1.389
   -0.832   1.107  -0.534  -1.598  -0.674   0.016   0.684   2.240   0.188   0.259
    0.715   1.764   1.471   0.896  -1.095   1.444  -0.667   0.585   0.869  -0.583
    0.309   0.870   0.277   1.779   0.529   0.150  -1.984   0.093  -0.320   0.501
    1.335  -1.049   2.493  -1.472  -1.128  -0.157  -0.097   0.166   0.193   0.171
   -0.078   0.529   2.051   0.057  -0.618  -0.836  -0.994  -1.452  -0.914   0.669

    0.550  -2.536
   -0.549   1.727  -0.294  -2.071  -0.028   1.023  -0.013   0.371   0.008   0.350
   -0.377  -0.238   0.914  -0.860   0.848  -2.150   0.566  -0.094  -2.131  -0.159
   -1.632  -2.301   0.707  -0.441  -0.381  -0.148  -0.053  -0.172  -0.740   0.690
   -0.855   0.882   2.491   0.285  -0.830  -0.503  -1.342   1.537  -1.363   0.791
    0.887  -0.479   0.052   1.437  -0.151   0.668  -1.699   0.320  -0.903  -0.743
   -0.833  -0.091  -1.091  -1.880  -0.907  -0.790   0.761   1.908  -0.435   0.634
    0.310   2.335   0.649   1.722  -1.271   1.342  -1.096  -0.009   1.452  -0.913
    0.809   0.475   0.506   1.379   0.812  -0.375  -2.750  -0.195   0.337   1.005
    1.357  -1.995   2.664  -1.821  -1.073  -0.513   0.203   0.486   0.407  -0.181
    0.197  -0.338   1.306   0.023  -0.954  -0.604  -1.728  -1.323  -1.268   0.941

    0.600  -2.141
   -0.849   1.571   0.086  -1.321   0.510   0.843   1.014   0.372  -0.204  -0.169
    0.365  -0.330   0.663  -0.706   1.221  -1.602   0.751   0.067  -1.532  -0.190
   -1.620  -1.944   0.468  -0.915  -1.060  -0.333  -0.171   0.046  -0.568   0.787
   -0.244   1.247   0.999   0.539  -0.354  -0.915  -2.044   1.141  -1.934   0.970
    0.239  -0.799  -0.881   0.327  -0.132   0.571  -2.357  -0.380  -1.231  -0.572
   -1.152   0.268  -0.699  -1.651  -0.841  -0.495   1.054   2.346  -0.326   1.155
    0.524   1.790   0.719   1.922  -0.643   1.144  -1.493  -0.110   1.334  -1.125
    0.366   0.438   1.385   1.440   0.118  -0.212  -2.343  -0.351   0.280   0.390
    1.704  -2.456   2.304  -2.169  -1.233  -1.108   0.247  -0.239   0.260  -0.521
    0.209  -1.326   1.407  -0.765  -0.743  -0.664  -1.098  -1.461  -1.709   1.097

    0.650  -2.898
   -1.074   0.967   0.377  -1.473   0.392   0.158   1.190   0.639  -0.212   0.416
    0.751  -1.051   0.165  -0.163   0.931  -1.929   0.915   0.251  -0.660  -0.125
   -1.857  -1.738   0.733  -1.012  -0.272  -0.103  -0.348   0.677  -1.191   0.458
   -0.535   1.679   1.410   0.951  -0.263  -0.854  -1.275   0.142  -1.920   0.996
    0.215  -1.215  -0.698  -0.259  -0.858   0.645  -1.910   0.263  -1.418  -0.631
   -1.193   0.391  -1.124  -0.925  -0.114  -0.641   0.576   3.390  -0.162   1.154
    0.570   1.710   0.543   1.397  -0.794   2.447  -0.726  -0.268   0.833  -0.692
   -0.056   1.026   1.643   1.297   0.123  -0.448  -2.035   0.010   0.605   0.104
    2.069  -1.821   2.135  -1.330  -0.837  -0.852   0.197   0.555   0.264  -0.499
   -0.326  -0.670   1.471  -0.884   0.644  -0.789  -1.141  -0.798  -1.992   1.295

    0.700  -3.020
   -1.344   1.093  -0.198  -1.709  -0.366   0.223   0.436   0.809  -0.479   0.558
    0.910  -0.953  -0.244   0.518   0.824  -1.579   0.771   0.944  -1.356  -0.326
   -1.221  -2.230   0.121  -0.772  -0.842   0.045  -0.651   0.283  -0.353   0.481
   -0.405   1.159   0.994   1.110  -0.030  -0.707  -1.381   0.337  -1.972   0.366
    1.215  -2.329  -0.017   0.367  -1.207   0.949  -1.829   0.536  -1.961  -0.953
   -0.936   0.674  -0.852  -0.661  -1.139  -0.397   0.557   3.668  -0.490   1.358
   -0.189   2.246   0.247   1.110  -0.602   2.503  -0.847  -0.743   0.047  -1.204
   -0.191   0.912   1.888   1.092  -0.152  -0.769  -1.601  -0.409   0.085   0.169
    2.451  -1.801   2.130  -1.688  -1.833  -0.594   0.112   1.208   1.158  -0.046
   -1.368  -2.307   1.631  -1.175   0.088  -1.000  -1.076  -0.732  -1.928   1.436

    0.750  -2.293
   -2.114   1.144   0.257  -1.626   0.193   0.448  -0.010   0.778  -0.398   0.557
    1.502  -1.307  -0.680   0.737   0.583  -1.960   0.768   0.542  -1.252  -0.186
   -1.498  -2.682  -0.104  -0.742  -1.601   0.240  -0.928  -0.354   0.750   0.497
   -0.703   1.473   1.440  -0.015   0.110  -0.121  -1.688   0.823  -2.512   0.050
    0.957  -2.390   0.231   0.536  -1.237   0.897  -2.124   0.282  -1.472  -0.392
   -0.403   0.204  -0.824  -0.552  -1.781  -1.238   0.725   3.228  -0.544   1.279
   -0.039   1.060  -0.079   1.129  -0.376   2.306  -0.200  -0.515   0.105  -0.649
   -0.844   1.099   1.436   0.870  -0.101  -0.001  -1.560  -0.372  -0.274   0.372
    1.766  -2.264   1.645  -1.968  -1.205  -0.758   0.733   1.606   1.761   0.685
   -1.359  -2.055   1.883  -1.348   0.332  -1.234  -1.283  -0.952  -1.562   0.945

    0.800  -1.473
   -1.713   0.777   0.318  -1.048   0.738   0.691   0.598   0.895   0.442   0.272
    0.999  -1.319  -0.618   0.680   1.152  -2.643   0.581   0.146  -1.281  -0.013
   -1.618  -3.532  -0.482   0.664  -1.835  -0.275  -1.692  -0.458   1.344   0.299
    0.561   1.106   0.935  -0.113  -0.817   0.062  -1.299   0.712  -2.081  -0.190
    1.741  -1.743   0.324   0.376  -1.444   0.734  -1.662   0.223  -1.641  -0.843
   -1.005   0.244  -0.560   0.391  -1.364  -1.083   0.382   1.465  -0.805   1.021
    0.154   0.431  -0.062   0.840  -0.431   2.611  -0.253  -0.738   0.085  -0.544
   -0.571   1.015   1.523   1.520   0.465   0.241  -0.928   0.308  -0.265   0.778
    1.649  -1.132   0.719  -1.569  -0.952  -0.549   1.353   1.727   1.988   1.098
   -0.574  -1.250   1.835  -1.188   0.009  -1.793  -1.249  -0.365  -1.186   0.397

    0.850  -1.416
   -1.378   0.970   0.569  -0.995  -0.173   0.117   0.859   1.010   0.384   0.347
    1.481  -0.903  -0.647  -0.641   0.766  -2.472   0.228  -0.117  -1.200   0.012
   -1.738  -2.469  -0.766  -0.098  -0.841  -0.050  -1.671   0.223   1.481  -0.035
    0.870   1.354   1.211   0.110  -0.687  -0.118  -0.246   0.070  -1.588   0.402
    1.946  -1.471   0.067   0.697  -1.309   0.754  -1.641   0.502  -1.562  -0.846
   -0.529   0.501  -0.556   0.330  -1.452  -1.583   1.205   1.296  -0.315   1.495
   -0.417   0.673   1.155   1.110  -0.159   2.505  -0.508  -0.535   0.086  -0.175
    0.546   0.660   1.276   0.964   0.686   0.414  -0.922   0.474  -0.294   0.233
    1.824  -0.778   0.004  -1.720  -1.344  -0.302   1.802   1.122   1.294   0.768
   -0.047  -1.755   1.622  -2.107  -0.385  -1.389  -1.221   0.411  -1.496   0.904

    0.900  -1.915
   -1.570   1.195   0.829  -1.924  -0.412   1.223  -0.106   0.762   0.094   0.023
    1.174  -0.755  -1.048  -0.589   1.258  -3.113  -0.160  -0.146  -1.127   0.301
   -1.699  -2.185  -0.641  -0.003   0.417   0.029  -1.775  -0.438   1.110  -0.440
    0.067   2.160   1.347  -0.014  -0.228   0.308  -0.604  -0.176  -1.059   0.484
    1.894  -0.087  -0.071   0.826  -1.196   0.732  -1.770   1.491  -0.442  -1.249
   -0.766   1.007  -0.414  -0.602  -1.793  -1.328   1.491   1.082  -0.318   1.043
   -0.562   1.059   1.508   0.864  -0.953   2.712  -0.203  -0.462  -0.124  -0.461
    0.535   0.350   1.162   1.112   0.385   0.456  -1.451   0.809   0.117   0.332
    1.718  -1.623   0.296  -1.902  -2.153  -0.214   1.104   0.827   1.077   0.532
   -0.918  -1.463   1.689  -2.222  -0.305  -0.687  -1.697   0.900  -0.715   1.011

    0.950  -2.241
   -1.235   1.033   0.804  -2.183  -0.330   0.693   0.219   0.501  -0.180   0.401
    1.301  -1.022  -1.203  -0.223   2.126  -2.538  -0.502   0.047  -1.452  -0.322
   -0.971  -1.561  -1.215   0.262   0.796   0.404  -1.269   0.158   0.777  -0.079
   -0.293   1.300   1.187   0.040   0.324   0.683   0.447   0.060  -1.757   1.138
    1.317  -0.527   0.440   1.162  -1.141   0.013  -2.010   1.766  -0.442   0.562
   -0.320   0.494  -0.042  -1.169  -1.689  -0.832   1.577   1.156   0.310   1.307
   -0.624   0.835   2.276   0.583  -0.919   2.963  -0.505  -0.374   0.431  -0.449
    0.833   0.519   1.171   1.264   0.364   0.399  -0.923   0.316  -0.129   0.087
    1.114  -1.705   0.410  -1.939  -2.068  -0.326   1.487   1.218   0.695   0.826
   -1.053  -1.207   1.999  -2.351  -0.456  -0.198  -0.859   0.686   0.007   0.528

    1.000  -1.709
   -1.953   1.429   0.934  -1.732  -1.031   0.571   1.172   0.517  -0.726   1.041
    1.917  -1.388  -2.195  -0.429   2.783  -2.020  -0.424   0.001  -1.572  -0.032
   -1.497  -0.895  -2.330  -0.472   0.475   0.582  -0.529   0.053   1.606  -0.667
    0.197   1.195   0.725   0.259   0.858  -0.061  -0.019  -0.350  -1.490   0.400
    1.868  -0.575   0.407   0.911  -1.594  -0.333  -1.632   1.322  -0.134   0.680
   -0.326   1.417   0.120  -0.859  -0.519  -1.846   1.539   0.850   1.178   1.021
   -0.926   0.972   2.131   0.699  -0.877   2.688   0.007  -0.311  -0.717  -0.706
    1.210   0.150   1.129   1.059  -0.148   0.110  -0.915   0.402  -0.032   1.437
    1.104  -1.517   0.683  -1.260  -1.526  -1.298   0.491   1.318   0.912   0.694
   -0.876  -1.291   1.253  -1.973  -0.937   0.215  -1.068   0.710  -0.445  -0.138

    1.050  -1.802
   -1.981   1.661   1.324  -0.839  -0.722   0.770   0.444  -0.254  -0.475   0.088
    1.419  -1.744  -1.594  -0.165   2.664  -2.301  -0.606  -0.716  -1.121   0.642
   -0.730  -0.164  -1.676  -0.503   1.014   1.094  -1.171   0.441   0.945  -0.795
    0.427   1.794   0.342   0.586   1.587  -0.305  -0.683  -0.520  -0.824   0.388
    1.834   0.204   0.177   0.810  -1.933  -0.150  -0.709   1.283  -0.233   0.147
   -0.716   1.143  -0.219   0.149  -1.479  -1.666   0.999   0.915   2.207   1.414
   -0.380   1.772   1.446   1.328  -1.050   2.629  -0.287   0.302  -1.110  -0.483
    0.880   0.796   0.542   2.219  -0.161   0.581  -0.642   0.583   0.735   1.001
    1.400  -1.352   0.797  -1.089  -1.298  -0.977  -0.496   1.206   0.770   0.915
   -1.357  -0.272   1.319  -1.177   0.288   0.224  -1.393  -0.009  -0.658  -0.635

    1.100  -1.615
   -2.431   0.916   1.567  -1.518  -0.241   0.013  -0.764  -0.432  -0.512   0.069
    0.917  -0.764  -1.244   1.459   2.418  -3.258  -0.695  -0.050  -0.879   1.472
   -0.391  -0.772  -1.136   0.054   1.097   0.525  -1.095   0.516   0.899  -0.980
   -0.109   1.869   0.823   0.400   1.921  -0.243  -1.306   0.145  -1.195   0.297
    1.388   0.024   0.283   0.757  -1.327   0.201  -1.236   1.493  -0.629   0.554
   -0.312   1.823  -0.769   0.631  -2.404  -1.808   1.377   0.563   2.191   1.271
   -0.035   1.653   0.723   0.980  -0.982   2.023   0.710   0.173  -1.134  -0.016
    0.480   0.831   0.431   2.540  -0.346   0.661  -0.931   0.700   1.280   0.927
    1.312  -1.237   1.286  -0.486  -1.457  -1.240  -0.598   0.866   0.436   0.837
   -1.237   0.046   1.425  -1.274   0.373  -0.344  -1.595  -0.086  -0.294  -0.356

    1.150  -1.272
   -2.311   1.256   1.386  -0.656  -0.289  -0.204  -0.168  -0.596  -1.072   0.933
    1.731  -1.146  -0.900   1.694   2.653  -2.947  -0.254   0.026  -1.300   1.870
   -1.243  -0.720  -1.679   0.085   1.524   0.929  -1.130   0.502   0.921  -0.560
    0.453   1.491   0.287   0.019   1.008  -0.702  -1.006   0.027  -0.218   0.009
    1.547  -0.451   0.426   0.178  -1.019  -0.201  -1.112   1.745  -1.205   0.339
    0.168   1.960  -1.328   0.463  -2.610  -1.074   1.869   0.245   1.879   1.268
    0.318   2.112   0.673   1.732  -1.583   1.940   0.691  -0.153  -0.598  -0.296
   -0.050  -0.053   0.170   2.988  -0.573   0.707  -0.692   0.289   0.960   1.225
    0.886  -0.684   1.624  -0.192  -1.215  -1.362  -0.076   1.432   0.047   1.470
   -0.910   0.508   1.610  -1.258   1.781   0.026  -0.567   0.574   0.081  -0.260

    1.200  -1.038
   -1.900   1.280   0.756  -0.801  -0.343  -0.117  -0.503   0.056  -0.707   0.607
    1.453  -0.651  -1.622   0.680   2.653  -3.510  -0.006   0.495  -1.137   2.095
   -1.234  -1.567  -0.933   0.175   1.382   1.939  -0.435   0.985   1.502  -0.723
    1.171   1.453  -0.303   0.361   1.256  -0.995  -0.838   0.075  -0.144   0.306
    1.714  -0.092   0.623  -0.342  -1.213  -0.523  -1.086   1.802  -0.593   0.127
    0.214   1.554  -1.455   0.204  -2.813  -0.685   1.502   0.622   1.948   0.810
    0.777   2.803   0.907   1.664  -1.942   1.954   0.423  -0.724  -0.043  -0.998
    0.206  -0.182   0.157   2.938  -0.774   0.112  -1.333   0.918   1.543  -0.007
    0.810  -1.518   1.005  -0.048  -0.947  -1.739   0.457   2.209   0.512   1.742
   -0.651   0.747   1.965  -1.753   1.588  -0.022   0.444   0.265  -0.095  -1.294

    1.250  -0.825
   -2.443   1.365   0.470  -1.037  -0.055  -0.912  -0.553   0.464   0.520  -0.290
    1.039  -0.578  -0.940   0.316   2.573  -3.051  -0.344   0.363  -1.261   2.029
   -0.942  -0.270  -1.051  -0.607   1.043   2.032  -0.425   0.616   1.020  -0.917
    1.630   1.010  -0.470   0.196   2.063  -1.021  -0.022   0.154  -0.901   0.252
    1.787   0.370   0.553  -0.768  -1.768  -0.220  -0.456   1.346  -0.957  -0.107
   -0.117   1.316  -1.055   1.434  -2.884  -0.982   1.143   0.712   0.828   1.436
    0.845   3.038   1.682   1.056  -2.497   1.783   0.371  -1.633  -0.980  -1.366
    0.189  -1.300   1.083   2.098  -1.469   1.012  -1.512   0.628   0.907   0.480
    0.485  -1.951  -0.207   0.399  -0.780  -1.913   0.481   0.734   0.034   1.440
   -0.653   0.275   2.237  -1.854   1.856  -0.204  -0.014   0.376   0.295  -1.253

    1.300  -0.948
   -1.767   0.637   0.752  -0.662   0.825  -0.350  -0.896   0.979   0.750  -0.311
    0.344  -0.074  -0.594   0.801   3.443  -3.314   0.646   0.767  -1.359   1.870
   -1.191  -0.885  -0.962  -1.025   0.774   1.816  -1.341   1.342   0.541  -0.598
    1.289   0.577  -0.547   0.122   1.837  -0.772   0.509   0.814   0.245  -0.137
    1.201   0.851   0.085  -0.351  -0.812  -0.977  -0.987   0.776  -1.348   0.893
    0.386   0.433  -0.757   1.287  -2.773  -0.735   1.456   0.000   0.497   1.200
    0.431   2.843   2.086   0.478  -2.345   2.054  -0.078  -1.449  -0.806  -0.442
   -0.089  -0.652   0.620   2.052  -0.600   0.765  -0.581   0.331   0.904   0.788
    0.045  -1.720  -0.346  -0.745  -1.124  -1.304  -0.011   0.814  -0.350   1.692
   -1.165   0.347   2.499  -1.823   2.232  -0.085  -0.696   0.585  -0.015  -1.138

    1.350  -0.993
   -0.949   1.223  -0.181  -0.776   0.974   0.252  -0.824   0.341   1.363  -0.210
    1.363   0.466  -0.608  -0.206   3.503  -3.602   0.396   0.805  -1.292   2.078
   -1.666  -0.258  -0.272  -0.681   0.943   1.607  -1.502   1.379   0.082  -0.886
    1.316   2.170  -0.530   0.179   1.640  -0.880   0.874   0.973   0.468  -0.334
    0.532   0.974  -0.356   0.137  -0.762  -0.731  -0.792   1.061  -1.966   1.384
    0.401   0.125  -0.650   1.816  -2.532  -0.317   1.301  -0.887   1.177   0.602
   -0.101   2.984   1.810   0.581  -1.529   2.328  -0.486  -1.331  -1.841  -0.483
    0.596  -0.053   1.363   2.261  -0.056   0.671  -0.672   0.662   1.464   0.556
   -0.089  -1.704  -0.682  -1.245  -1.309  -1.341  -0.018   0.780  -0.344   1.747
   -0.801   0.610   2.439  -1.450   1.690  -0.350   0.399   0.302   0.410  -1.811

    1.400  -1.991
   -1.442   0.991   0.809  -0.858   1.488  -0.569  -0.572   0.313   1.597   0.152
    1.904   0.475  -1.476  -0.117   3.935  -4.270   0.331   0.419  -0.639   1.442
   -0.364  -0.721   0.258  -0.232   1.078   1.442  -0.932   1.688   0.240  -0.934
    1.659   1.700  -0.413   0.096   1.316  -0.690   0.956   0.676   0.671  -0.405
    0.599   1.146   0.514   0.271  -1.941  -0.552  -0.939   1.434  -1.710   0.892
    0.461   0.238  -0.176   1.842  -2.229  -0.584   1.131  -1.174   0.857   0.658
   -0.184   2.083   1.928   0.870  -0.987   2.621  -0.041  -1.383  -2.072  -0.399
    0.514  -0.527   1.424   2.196   0.047   0.498  -1.174   0.194   1.628   1.060
    0.129  -2.138  -1.197  -1.500  -1.423  -0.844   0.147   0.575  -0.451   1.075
   -0.616   0.401   1.476  -1.153   1.666  -0.243   0.762  -0.064   0.657  -1.673

    1.450  -1.960
   -1.633   1.671   0.629  -0.583   1.121  -1.009  -0.578   0.119   1.575   0.888
    1.574   0.129  -0.961  -0.199   3.396  -3.716   0.460   0.667  -0.590   0.546
   -0.092  -0.961   0.388  -0.302   0.804   2.389  -1.241   1.174   0.483  -0.559
    0.783   1.275  -0.309  -0.292   1.828   0.282   1.879   0.504   0.157  -0.498
    0.608   1.045   0.909   0.268  -1.814  -0.314  -0.407   0.555  -1.257   0.569
    0.399   0.332   0.678   2.253  -1.237  -0.242   1.551  -0.528   2.004  -0.247
    0.536   1.297   1.596   0.686  -1.664   2.319  -0.061  -2.077  -2.033  -0.590
    0.595  -0.905   1.324   1.237   0.546   0.326  -1.366  -0.663   1.498   0.855
    0.252  -2.139  -0.597  -0.814  -0.028  -0.995   0.126   0.311  -0.030   1.893
   -0.788   0.351   1.138  -0.334   2.558  -0.498   1.220  -0.872   0.594  -0.991

    1.500  -1.924
   -0.807   1.491  -0.001  -0.291   1.014  -0.572  -0.858   0.407   1.681   1.056
    1.068   0.602  -2.014  -0.082   3.727  -3.564  -0.099   0.543   0.333  -0.042
   -0.254  -1.233   0.515  -0.374   1.091   3.191   0.107   0.778   0.333  -0.932
    1.185   0.926  -0.535   0.046   1.582   0.513   1.648  -0.039  -0.139  -0.097
    0.693   0.511   0.107   0.574  -1.906   0.504  -0.674  -0.270  -1.470   0.460
    0.723   0.349   0.249   1.518  -1.221  -0.844   1.732   0.091   1.547  -0.664
    0.529   1.042   1.034   0.502  -2.013   2.930   0.244  -2.507  -1.793  -0.579
    0.159  -0.612   1.491   0.893   0.070   0.648  -1.293  -0.474   1.778   0.311
   -0.233  -2.166  -0.591  -0.739  -0.558  -1.455  -0.357   0.627   0.307   2.600
   -0.207   0.270   0.955   0.000   1.938  -0.158   1.065  -0.784   0.636  -1.005

    1.550  -0.564
   -0.742   2.237   1.000   0.274   0.814  -0.281  -1.155   0.698   1.387   1.338
    0.737   0.946  -2.213   0.446   4.144  -3.223  -0.123   0.959   0.876   0.525
   -0.004  -0.709   0.605   0.055   0.884   2.235   0.074   0.672   0.461  -0.495
    1.201   0.628  -0.882   0.252   1.575   0.545   1.348   0.133  -0.095   0.720
    0.510   0.151  -0.395   0.516  -2.160   0.513  -1.042  -0.677  -0.510   0.489
    0.858   1.092  -0.596   1.537  -1.023  -1.897   1.490   0.279   1.039   0.207
    0.458   1.125   1.115  -0.126  -2.312   2.738  -0.235  -2.574  -0.882  -0.090
   -0.463  -0.118   1.584   0.562   0.272   0.233  -1.455   0.056   2.203   0.882
    0.147  -1.889  -0.833  -0.872  -0.361  -1.777  -0.444   0.476   0.220   1.787
   -0.641   0.323   1.328  -0.283   2.625   0.531   0.310  -1.142   1.048  -1.350

    1.600  -1.120
   -0.901   2.899   0.850   0.610   0.615  -0.571  -1.087  -0.027   1.507   1.626
    0.182   0.769  -2.425   0.481   3.360  -3.437   0.806   0.978   1.338   0.628
    0.165  -0.059   1.643  -0.444   0.882   2.244  -0.153   0.536  -0.384   0.316
    1.035   1.168  -0.647   0.258   1.281   0.903   0.931   0.089  -0.169   0.159
    0.149   0.626  -0.315   0.251  -2.986   0.319  -1.073  -0.649  -0.365   0.399
    0.913   1.371  -0.614   1.338  -0.817  -1.653   1.326   0.439   1.313  -0.355
    0.519   1.161   0.683   0.366  -1.890   2.597   0.294  -1.587  -1.191  -0.083
    0.366  -0.412   1.181   0.657   0.337   0.447  -1.157  -0.173   1.601   1.836
   -0.199  -1.899  -0.347   0.079   0.235  -1.045  -0.226   0.546   0.934   0.532
   -0.697   0.089   1.413  -0.601   2.549   0.598  -0.048  -0.857   1.256  -1.679

    1.650  -0.963
    0.010   1.944   0.875  -0.001   0.436  -0.704  -0.865   0.499   0.679   1.998
    0.816   0.241  -2.781   0.511   2.568  -3.068   0.500   0.437   0.708   1.055
    0.138   0.207   1.240  -0.350   0.988   2.695  -0.572   0.494  -0.184  -0.040
    0.510   0.708   0.109   0.402   1.386   0.292   0.658  -0.060  -0.390   0.094
   -0.082   1.074  -0.278   0.523  -3.294   0.629  -0.918  -0.816  -0.291   0.450
    0.579   0.442  -1.691   2.385  -0.324  -1.027   1.144   1.031   1.061  -0.240
    0.618   0.751   0.506   0.415  -1.283   2.189   0.139  -1.826  -0.710   0.628
    0.287  -0.972   0.938   1.318  -0.055  -0.048  -1.658  -0.216   1.151   1.906
    0.119  -1.040   0.255  -0.525  -0.001  -1.283  -0.590   1.020   1.610  -0.272
   -0.121  -0.122   0.724  -0.641   2.109   0.028  -0.942  -0.544   1.607  -1.563

    1.700  -0.467
    0.923   1.214   0.724  -0.176  -0.227  -1.026  -0.475  -0.482   0.965   1.761
    0.602  -0.445  -1.720   1.123   1.657  -2.266   0.610   0.532   0.583   1.476
    0.071  -0.295   1.138  -0.702   0.682   1.741  -0.325   0.307  -0.087   0.925
   -0.092   0.507  -0.798   0.082   2.290  -0.500   1.345   0.215  -1.034  -0.390
    0.156   0.793  -0.555   1.191  -3.661   1.081  -0.138  -0.782  -0.597  -0.088
    0.112   0.361  -1.816   1.659  -0.277  -0.430   1.129   1.133   0.607  -0.232
    0.233   1.277   1.835   0.364  -0.891   2.163   0.034  -1.987  -0.313   0.270
   -0.230  -1.135   0.614   1.515   0.574  -0.265  -1.314  -0.062   1.841   1.704
    0.980  -0.652   0.067  -0.534  -0.734  -1.471   0.270   2.045   1.030   0.166
   -0.719  -0.774   0.224  -0.530   1.732   0.309  -0.556  -1.352   0.740  -0.670

    1.750  -0.212
    0.604   2.090   0.912  -0.442   0.033  -0.707   0.077   0.205   0.660   1.768