
This full-field turbulence file was generated by TurbSim (v1.40, 12-Sep-2008) on 27-May-2021 at 14:31:58.

 | u-comp |  Y  x  Z  | Grid Resolution (Y x Z) | Time-step | Hub Elev | Mean U |
            10    10     15.556     15.556          0.050      89.60     21.00

 Z Coordinates (m):
  -70.000 -54.444 -38.889 -23.333  -7.778   7.778  23.333  38.889  54.444  70.000

 Y Coordinates (m):
  -70.000 -54.444 -38.889 -23.333  -7.778   7.778  23.333  38.889  54.444  70.000

    0.000  16.959
   23.813  25.005  23.352  22.697  18.490  14.924  17.272  16.219  21.898  21.679
   21.462  22.216  20.197  18.026  17.842  16.805  16.056  16.166  17.762  18.755
   23.813  21.555  20.479  17.010  18.394  18.777  15.496  15.702  15.753  16.028
   22.385  21.375  18.921  19.004  15.295  17.754  15.902  16.078  17.433  19.798
   17.324  20.056  15.875  16.241  16.174  15.459  16.627  19.567  15.511  20.234
   16.154  19.064  16.918  17.112  15.358  15.858  12.304  13.206  14.197  18.647
   14.860  16.909  16.347  14.383  19.532  13.270  15.401  14.164  17.627  17.410
   15.559  12.056  15.732  18.306  12.264  10.495   9.594  13.664  15.368  17.208
   15.372  13.334  13.823  16.632  10.991   7.822   7.930  14.034  13.213  14.199
   11.365   9.987  12.155  11.295  10.632   9.907   4.404   9.626  10.601  11.773

    0.050  16.156
   23.257  24.674  22.418  22.872  18.962  15.663  16.263  16.961  22.071  21.197
   21.671  21.633  20.244  17.955  17.468  17.127  16.192  17.128  18.211  19.393
   22.741  21.543  20.245  16.525  17.905  18.241  15.664  15.956  15.617  17.276
   22.346  21.736  19.195  19.257  16.408  17.493  16.477  16.670  17.901  19.933
   17.080  20.632  15.851  16.495  16.460  15.889  16.955  19.341  16.066  19.886
   16.613  19.238  17.505  16.684  15.376  14.636  12.535  14.296  13.635  19.315
   15.636  16.991  16.130  13.961  19.301  13.911  15.638  14.144  17.466  16.973
   14.847  12.827  15.134  18.250  13.146  10.860  10.102  13.857  15.935  17.665
   15.818  13.311  13.613  16.161  10.306   7.253   7.522  14.016  13.236  13.969
   11.686  10.587  11.704  11.138  10.229   8.669   4.158   9.118  10.364  12.337

    0.100  16.143
   23.286  24.329  22.826  22.394  19.268  15.779  16.048  17.600  22.007  21.133
   22.020  21.789  20.014  17.607  17.258  17.627  15.652  18.044  18.305  19.709
   23.403  21.043  19.617  17.518  18.964  18.587  15.844  16.727  14.993  18.162
   22.507  20.900  18.291  20.154  16.314  17.141  16.066  16.325  18.888  19.998
   17.608  21.249  16.390  17.436  16.397  15.741  17.326  19.379  16.292  19.362
   15.807  19.552  18.252  16.347  15.228  14.492  11.383  14.636  13.659  18.683
   15.610  16.235  15.574  15.196  19.248  12.456  14.585  13.950  16.260  16.864
   14.863  14.144  14.332  17.653  12.359  11.405  10.352  14.386  15.347  17.214
   15.594  13.184  14.101  15.960  11.674   6.843   7.490  14.352  12.769  14.520
   11.468  10.832  10.965  10.102   9.344   8.235   4.582   9.270  11.045  12.487

    0.150  14.924
   23.375  23.559  22.649  21.746  19.187  15.729  16.903  17.794  21.839  20.074
   21.195  21.715  19.822  18.417  17.586  16.169  16.554  18.601  17.670  19.412
   23.119  20.983  20.323  17.228  18.623  18.077  16.742  17.202  15.522  18.492
   21.971  20.113  18.195  20.265  17.196  17.464  15.070  16.867  18.658  19.475
   18.239  20.502  15.852  16.871  17.492  15.564  16.678  19.225  15.988  18.502
   15.245  19.408  18.736  16.928  15.358  14.738  12.038  14.752  14.188  19.559
   16.438  16.870  16.316  14.598  19.366  13.085  15.638  14.391  16.409  17.316
   14.897  12.842  14.148  17.461  12.162  10.704   9.946  13.944  14.848  17.157
   16.946  11.776  13.686  14.799  11.715   7.024   7.790  14.030  12.363  14.377
   11.671  11.441  10.772   9.722   8.516   8.695   4.739   9.489  10.777  12.101

    0.200  14.667
   23.989  23.323  22.844  22.486  18.299  14.734  16.954  16.801  21.172  20.010
   20.482  22.217  20.137  18.009  18.417  15.935  16.010  17.758  17.501  19.399
   23.618  21.907  20.905  17.859  18.519  17.222  17.178  16.560  15.900  17.942
   22.223  21.402  17.784  19.689  17.141  16.845  15.614  17.362  17.400  18.913
   18.689  19.596  16.003  16.851  17.047  14.505  16.431  19.817  15.402  17.848
   15.341  19.398  18.187  17.302  15.988  14.290  12.628  15.235  13.887  19.796
   16.704  15.832  16.712  14.493  18.885  12.601  15.127  14.945  15.850  17.454
   15.098  13.877  13.899  17.447  12.114  10.139   9.538  13.452  14.778  16.337
   16.595  12.018  13.981  15.421  11.993   7.049   8.635  13.003  12.882  15.087
   10.881  11.246  11.121   9.197   8.296   8.325   4.326   9.897  10.203  12.384

    0.250  15.547
   23.779  23.128  22.950  23.050  19.298  14.682  17.058  15.880  20.517  19.623
   19.889  22.439  18.663  16.765  18.944  16.593  15.568  17.201  18.086  19.201
   22.977  22.291  22.152  18.469  17.851  17.523  16.351  16.074  16.958  18.231
   22.083  21.452  17.930  20.045  16.228  16.520  14.890  17.462  17.349  19.374
   19.602  20.632  15.839  17.646  17.460  15.224  16.422  21.104  16.487  18.063
   15.964  18.620  17.402  17.512  15.337  14.083  13.110  15.489  13.775  19.406
   16.447  16.499  15.888  14.492  18.828  12.055  14.984  14.214  16.743  17.287
   15.586  13.876  14.017  18.033  10.832   8.933  10.079  14.532  14.820  16.787
   16.198  10.755  14.823  15.405  12.321   7.248   8.761  12.981  13.677  15.235
   10.724  11.741  11.667   9.159   8.079   8.714   5.202   9.720   9.971  13.469

    0.300  14.366
   22.523  23.354  23.202  22.607  19.268  16.351  17.028  15.849  20.215  19.990
   19.126  23.364  19.672  16.387  18.688  16.844  15.978  17.748  18.999  19.423
   23.116  22.095  21.835  19.038  18.113  17.572  16.851  15.254  16.518  18.822
   21.934  20.511  18.364  20.172  16.431  17.015  15.016  16.186  18.199  19.244
   19.196  21.080  16.619  17.784  17.466  16.271  16.609  20.474  17.305  17.986
   16.140  19.599  16.415  16.987  14.903  14.712  14.260  15.624  13.840  19.321
   15.947  16.466  15.277  14.531  17.703  13.289  15.337  14.204  17.383  17.448
   14.992  12.995  13.973  16.928  11.522   9.261  10.005  15.543  15.307  17.247
   16.272  10.755  14.591  15.891  12.524   6.747   9.120  13.141  13.165  16.046
   10.885  11.626  11.870   8.973   8.474   8.540   4.837   9.543  10.086  13.221

    0.350  15.694
   22.747  22.908  23.160  22.666  19.055  15.957  16.720  16.650  19.265  19.791
   18.948  24.306  19.372  17.852  17.715  16.807  17.016  17.706  18.530  18.638
   24.282  21.548  22.007  19.280  19.028  17.822  16.709  15.284  16.661  17.609
   22.212  20.667  18.985  20.262  15.622  16.724  14.852  16.432  17.845  19.388
   19.196  20.668  17.023  16.988  17.226  15.247  16.013  20.250  17.271  18.508
   16.253  20.332  15.164  16.684  14.072  16.101  15.098  16.375  13.935  19.499
   16.440  16.855  14.623  14.832  17.634  13.273  14.877  14.610  17.440  17.407
   15.305  12.802  13.386  16.726  12.458   9.179  10.667  15.959  15.845  16.555
   15.724  11.113  14.473  14.968  12.442   8.066   9.180  13.230  11.632  16.902
   10.308  11.749  11.593   8.914   8.745   8.525   5.864   9.526   9.972  13.397

    0.400  16.420
   22.930  22.900  22.099  22.298  19.680  15.188  16.561  16.571  19.588  20.037
   19.728  24.241  19.513  17.860  16.849  16.619  17.492  17.303  18.073  18.814
   24.332  21.766  21.699  18.801  18.837  18.067  16.462  14.928  16.890  17.204
   21.754  21.375  18.655  19.161  15.311  16.856  14.282  15.765  17.998  19.473
   18.844  20.686  17.824  16.423  16.425  15.660  16.430  20.293  17.325  17.654
   16.882  20.118  14.348  16.123  15.066  16.977  14.924  15.792  13.548  19.532
   16.133  16.706  14.296  14.134  17.927  13.431  14.376  14.691  17.353  16.999
   16.457  13.234  14.420  17.279  12.913   8.133  11.261  15.845  15.750  16.387
   16.639  11.172  14.077  14.525  12.141   7.474   9.509  13.590  11.408  17.327
   10.819  10.509  10.952   9.437   8.981   6.828   4.688  10.132  10.088  13.269

    0.450  16.147
   22.711  22.638  22.110  22.876  19.888  16.418  15.744  17.171  19.299  19.479
   18.881  24.259  20.003  16.457  16.790  17.271  16.948  17.320  18.059  18.831
   24.462  21.898  21.420  18.748  19.545  17.922  17.115  14.367  16.459  16.627
   21.478  21.218  18.027  19.161  14.854  16.715  16.026  16.137  17.014  20.340
   19.151  21.220  17.597  16.369  15.212  15.781  16.765  19.904  17.164  17.418
   17.698  19.628  15.056  15.003  15.116  16.113  15.082  15.076  13.604  18.504
   14.804  16.149  14.770  14.573  18.078  12.675  14.561  13.445  18.154  16.942
   16.354  13.618  14.801  18.036  13.645   8.543  11.344  15.734  16.680  17.118
   17.569  11.451  14.928  14.803  11.834   8.563   9.447  13.309  12.214  17.386
   10.727  10.527  10.108   9.274   8.789   7.068   4.610  10.944  10.552  13.306

    0.500  15.962
   22.586  22.909  22.260  22.897  20.169  16.069  16.773  17.658  19.159  19.152
   19.986  23.825  20.166  17.195  16.431  17.427  17.568  17.425  17.855  17.969
   23.711  21.745  20.818  19.146  19.717  18.110  16.895  14.269  15.368  16.459
   22.064  20.764  18.138  18.859  14.875  16.452  15.971  17.063  17.585  20.112
   19.546  20.797  16.674  15.516  15.101  15.604  18.098  18.218  17.340  18.660
   18.249  20.309  14.427  16.437  15.911  15.818  15.755  15.562  14.081  18.657
   14.326  16.366  13.806  14.209  17.582  13.369  14.135  13.990  18.962  16.131
   16.096  14.349  14.567  17.579  13.612   8.352  10.252  16.080  16.057  17.469
   18.323  12.155  15.192  15.389  11.360   8.966   9.889  12.935  12.196  16.983
   10.172  10.849  10.783   9.222   9.043   7.327   5.180  11.249  11.027  12.706

    0.550  16.507
   22.245  23.033  22.969  21.533  21.142  16.127  17.302  17.254  19.637  19.381
   19.310  23.219  20.732  17.591  17.142  17.775  17.457  17.446  17.441  18.713
   23.381  22.528  20.687  18.916  19.141  17.134  16.422  14.131  15.564  16.410
   22.442  20.814  18.582  17.205  15.175  16.434  16.238  17.028  18.045  20.214
   18.884  21.809  16.693  15.983  14.925  15.346  18.075  20.089  17.201  17.720
   17.335  20.550  14.838  16.666  16.389  15.840  15.204  15.473  14.101  18.570
   14.282  16.249  14.092  14.613  16.338  13.191  13.971  13.896  19.298  16.547
   16.211  14.474  15.171  18.097  14.411   9.606  10.954  15.110  16.647  16.707
   17.857  12.307  14.900  14.828  11.862   8.745   9.384  12.123  11.529  18.029
   10.907  10.815  10.813   9.736   8.203   7.676   5.516  11.741  11.370  12.910

    0.600  16.954
   22.055  22.618  22.721  22.112  21.057  17.186  17.108  16.110  18.855  19.908
   18.719  23.602  21.683  17.914  17.112  17.896  16.633  17.581  16.920  19.915
   23.272  21.647  21.194  18.259  19.296  17.173  17.014  13.273  16.139  16.485
   22.809  20.379  19.777  18.137  15.352  16.734  16.173  17.706  19.000  20.218
   18.911  20.962  16.792  16.518  14.030  15.077  18.114  20.680  17.248  17.087
   17.296  19.706  14.014  16.206  17.557  16.466  14.772  15.150  14.453  18.443
   14.705  16.071  14.270  14.506  16.876  12.641  14.197  13.938  18.672  16.071
   15.294  15.574  14.730  16.584  14.692   9.987  11.402  15.732  16.305  17.194
   19.030  13.341  15.508  15.714  11.913   9.222   9.194  12.458  11.615  18.247
   10.305  10.162  10.151   9.748   8.259   8.215   5.446  11.242  10.680  13.616

    0.650  16.932
   22.011  22.136  22.424  21.291  19.824  17.849  16.956  15.877  18.797  20.204
   18.390  22.905  21.309  17.743  16.846  17.459  17.133  17.709  17.007  20.059
   22.558  21.668  21.022  18.335  18.923  17.218  16.324  13.363  17.070  16.972
   23.119  19.816  19.673  18.033  15.353  17.085  15.640  18.795  20.019  20.354
   19.047  19.939  17.028  15.739  14.124  15.407  18.331  20.587  17.735  16.482
   17.484  19.800  14.958  15.640  17.392  16.059  13.367  14.898  15.386  18.654
   15.206  16.376  13.649  14.055  17.106  12.681  14.998  14.064  18.119  16.525
   15.404  15.928  14.427  15.644  14.561  10.438  12.224  14.280  15.017  16.692
   18.813  13.651  14.579  15.406  11.652   8.927  10.015  13.542  12.628  16.657
   10.747  10.427   9.979  10.199   8.050   8.017   4.906  10.549  10.533  13.798

    0.700  16.337
   22.197  23.016  21.639  20.378  18.556  18.282  16.779  15.249  17.497  19.891
   18.916  22.817  20.573  18.029  17.082  16.974  16.465  19.584  16.799  20.034
   23.037  22.542  21.402  18.387  19.626  17.368  16.917  12.818  17.402  16.598
   22.918  18.789  18.894  17.257  16.472  16.612  14.718  19.468  19.490  20.645
   19.081  20.824  16.546  16.162  14.034  15.672  17.604  19.357  17.143  16.132
   18.191  19.814  14.723  15.513  16.889  16.216  12.124  15.211  15.184  17.905
   14.021  15.851  13.834  13.915  17.147  13.283  14.160  14.426  17.945  16.443
   15.164  16.654  14.472  16.413  14.704  10.210  12.252  13.774  15.263  16.597
   19.303  13.608  13.549  15.201  11.226   9.157   8.830  13.643  12.274  17.312
   12.362  11.170   9.451   9.915   8.255   8.093   4.262  10.209  10.579  14.012

    0.750  15.834
   22.321  22.484  21.899  20.294  18.555  18.243  15.905  15.659  18.439  19.807
   18.408  22.307  21.172  18.781  16.825  18.024  16.736  19.930  16.875  19.719
   23.564  22.214  21.291  18.352  20.341  17.058  17.616  13.496  18.092  15.607
   23.517  18.266  18.938  16.433  17.132  16.772  14.997  19.284  19.777  20.043
   19.187  20.818  17.480  16.004  14.747  16.581  17.599  19.472  16.588  17.595
   18.273  19.525  14.133  15.234  15.879  16.146  12.274  16.287  15.316  18.218
   13.996  15.212  13.889  13.232  18.084  13.741  12.939  14.676  16.790  17.319
   14.951  16.499  14.826  16.948  14.117  11.155  12.681  14.031  15.236  16.691
   20.356  13.164  12.676  15.276  10.774   9.147   9.064  13.938  12.523  17.824
   12.416  11.200  10.235  10.240   8.157   8.693   4.919   9.393  12.480  13.583

    0.800  15.756
   22.190  21.436  21.890  21.526  18.911  18.575  15.289  15.462  19.680  21.023
   17.947  23.341  20.365  19.082  16.441  17.888  15.698  19.366  16.588  20.393
   24.062  22.227  20.266  18.256  20.138  16.991  17.712  14.041  17.470  16.577
   22.189  19.085  19.475  16.377  17.486  16.562  15.633  19.444  19.961  19.888
   19.130  21.162  17.311  15.800  14.723  17.346  17.392  19.124  17.333  17.866
   17.477  19.551  14.809  15.068  15.340  16.854  12.929  16.158  14.877  19.019
   12.878  15.141  13.220  13.524  17.754  13.524  13.079  15.936  16.323  17.256
   15.024  15.992  15.097  16.494  14.517  11.320  13.147  13.736  15.991  17.058
   20.194  13.191  12.423  15.330  11.639   9.228   9.061  14.019  13.714  18.479
   12.467  11.450  10.698  10.746   8.931   8.856   5.707   8.474  12.423  13.077

    0.850  14.730
   22.424  20.984  21.907  21.617  18.702  18.098  16.061  15.370  18.848  21.130
   18.722  23.705  20.393  18.769  16.470  17.417  15.508  19.240  16.722  20.182
   24.143  21.712  20.283  18.737  19.524  17.005  18.188  14.539  18.826  17.214
   21.547  19.106  19.294  15.667  17.101  15.924  16.075  19.341  19.622  20.868
   19.122  20.340  18.495  15.022  15.113  17.344  17.620  18.215  16.484  18.285
   17.257  19.610  14.664  14.380  14.513  17.441  12.950  16.020  14.901  19.072
   13.631  15.586  13.721  13.427  18.677  13.606  13.305  15.285  16.359  17.884
   14.494  14.716  13.605  16.451  14.713  11.613  13.458  12.871  16.671  16.845
   17.905  13.024  12.256  14.985  12.101   8.749   9.383  13.188  14.379  17.804
   12.175  12.114  11.315  10.723   9.378  10.613   4.782   7.996  12.820  13.334

    0.900  15.350
   21.907  20.595  21.517  20.777  18.845  17.177  16.688  15.750  18.698  20.751
   18.846  23.419  20.940  18.674  17.016  17.500  15.086  19.191  17.484  21.034
   24.492  22.080  20.526  20.702  19.127  16.630  17.742  15.594  19.184  17.022
   21.593  19.021  19.367  15.403  14.901  15.938  17.532  20.598  18.884  21.524
   19.755  19.948  18.508  15.026  15.515  16.957  17.213  18.553  16.895  18.406
   17.514  20.521  15.734  14.658  14.562  16.698  13.770  15.131  14.956  18.383
   13.937  15.504  12.714  12.694  18.951  14.512  13.223  15.098  16.491  17.192
   14.563  14.598  14.082  16.218  14.993  11.619  13.130  13.023  16.443  16.103
   17.254  12.750  13.690  15.646  11.863   9.061   8.317  12.922  15.188  17.033
   11.872  12.055  11.258  10.441   9.827  11.010   4.586   7.572  13.382  13.665

    0.950  15.852
   21.224  21.530  22.051  20.418  18.736  17.021  16.591  16.121  19.425  20.480
   17.956  22.214  21.548  18.710  15.984  16.660  15.353  18.990  17.555  21.036
   23.693  21.752  20.690  20.478  19.401  17.275  17.577  15.283  18.550  16.747
   21.646  18.121  18.941  16.715  15.492  16.142  17.814  20.136  18.522  21.832
   20.082  20.866  18.314  15.622  14.631  17.238  18.013  19.579  16.712  19.166
   17.698  20.053  15.313  15.275  15.264  15.637  14.214  15.168  15.595  17.671
   14.085  15.888  12.013  13.562  18.689  15.159  13.822  15.187  15.510  17.578
   14.397  14.752  14.783  16.222  15.439  10.378  12.925  12.179  16.149  16.225
   17.973  12.811  13.646  14.858  11.796  10.141   9.088  12.404  15.315  16.793
   11.514  12.406  10.890  10.734   9.496  10.827   3.979   7.036  13.398  14.239

    1.000  15.456
   20.839  22.130  22.881  20.555  18.088  18.019  16.251  16.845  19.509  19.721
   18.581  21.533  21.736  18.088  16.191  17.172  15.847  18.637  18.489  21.221
   23.229  21.001  21.381  20.441  18.869  17.844  17.696  14.841  18.436  17.093
   22.277  19.422  19.093  17.605  15.688  16.047  17.832  19.235  17.893  22.171
   20.158  20.120  17.219  15.107  14.082  17.503  18.910  19.933  17.253  18.640
   17.743  19.920  15.632  13.851  14.674  15.157  13.514  15.430  14.947  18.367
   13.902  16.316  11.695  14.062  18.428  14.030  13.748  15.618  15.336  17.306
   14.552  15.260  13.923  17.123  16.046  10.213  12.590  11.996  15.832  15.962
   18.380  13.286  13.031  15.003  11.384  10.864  10.033  12.186  14.767  17.495
   11.185  12.678   9.718  11.035   9.890  11.589   3.878   7.499  14.261  14.046

    1.050  16.160
   20.900  21.351  23.440  20.291  18.965  18.215  16.467  16.330  20.080  20.182
   18.075  20.719  21.339  18.125  16.277  16.949  15.232  18.726  17.543  20.001
   22.820  21.270  21.237  20.163  18.437  16.956  17.602  14.507  18.771  17.738
   22.570  19.741  18.732  17.691  15.790  14.620  18.232  19.249  16.915  21.836
   19.844  20.611  17.903  14.969  15.541  17.439  18.771  19.255  17.473  18.390
   17.894  19.825  15.586  13.326  15.657  15.546  13.969  16.006  14.681  19.089
   14.507  16.101  11.959  15.859  17.789  13.500  13.961  15.222  15.923  18.181
   14.804  15.450  12.413  16.853  16.192   9.839  12.335  12.134  16.555  16.915
   17.881  12.982  13.072  15.332  10.216  10.495   9.742  12.326  15.086  17.929
   11.576  11.904   9.811  11.178   9.294  11.580   4.504   7.181  14.522  14.052

    1.100  15.385
   20.714  21.478  23.805  20.552  18.626  18.164  17.058  15.745  19.950  19.688
   18.166  20.822  21.477  19.962  14.715  17.354  14.915  18.069  17.170  18.779
   23.036  21.073  21.731  20.858  17.508  16.468  17.314  14.196  19.473  17.562
   22.368  19.749  18.298  18.443  15.695  15.099  17.984  18.888  17.205  21.259
   20.427  20.677  17.888  14.393  16.010  16.874  18.319  18.669  16.623  18.845
   17.865  20.082  15.249  13.023  15.514  16.843  14.549  17.315  14.319  19.547
   14.715  16.467  14.218  16.229  17.230  13.581  14.400  15.334  15.896  18.758
   14.693  16.354  13.322  16.122  16.568   9.462  12.537  11.954  15.881  18.232
   16.924  13.303  12.499  15.099  11.173  10.906  10.329  12.983  16.358  17.900
   10.899  12.791   9.684  11.160   9.177  10.796   4.449   7.150  14.600  14.241

    1.150  15.549
   19.699  22.086  23.322  20.028  18.768  18.439  16.357  15.403  18.460  19.883
   17.230  20.819  21.361  19.967  15.422  17.256  13.800  17.141  16.402  19.208
   24.041  20.907  21.765  19.140  17.386  16.868  17.580  14.532  19.631  17.642
   22.043  19.213  18.147  18.150  15.941  15.321  17.983  18.452  17.576  21.728
   20.773  20.338  17.657  15.193  14.480  16.829  18.236  18.075  17.633  19.336
   18.074  19.918  15.032  13.372  15.251  16.735  14.327  16.661  14.447  19.643
   14.250  16.814  14.727  16.217  16.652  13.584  14.598  15.043  15.509  18.115
   15.284  16.622  13.568  16.377  14.707   9.361  13.153  11.760  16.562  18.061
   15.884  12.178  12.807  15.039  11.889  10.617  10.445  13.188  16.806  17.765
   10.311  12.314   9.069  11.654   9.336  10.083   4.890   7.367  14.996  14.984

    1.200  15.796
   20.388  22.807  21.890  18.307  18.617  18.277  14.963  15.187  18.262  20.270
   17.543  20.748  22.146  20.832  15.698  17.129  13.913  17.472  17.176  18.033
   24.191  21.522  21.733  18.485  17.972  17.145  18.504  14.758  19.865  17.253
   22.500  19.400  18.535  18.116  16.227  15.487  17.704  17.922  18.100  21.149
   21.431  20.650  17.759  15.100  14.233  17.155  17.620  18.107  17.179  20.395
   18.453  21.549  15.662  13.513  15.171  17.137  14.366  15.605  14.070  19.580
   14.002  16.310  14.968  16.057  15.316  14.619  14.651  14.922  15.773  17.259
   15.494  17.299  12.902  15.996  14.266   9.290  13.152  11.119  16.206  18.573
   15.597  12.185  12.834  14.843  11.767  10.522   9.699  13.176  16.168  18.205
   10.600  12.539   9.365  11.920   8.149   9.036   4.921   7.155  14.080  15.266

    1.250  15.711
   20.868  23.305  22.266  18.188  18.826  18.319  15.391  14.077  18.512  20.473
   18.314  20.316  22.300  21.076  16.098  17.246  13.738  17.545  17.293  18.218
   23.781  20.914  21.976  19.557  17.272  16.975  18.662  15.561  19.789  17.567
   23.289  19.899  18.282  17.997  17.322  15.435  17.613  17.476  18.839  20.410
   21.626  20.379  17.694  15.141  13.735  16.848  17.090  18.776  16.146  19.783
   17.008  21.189  16.041  14.123  14.919  17.150  15.596  15.811  14.575  19.064
   14.595  15.720  15.068  15.953  15.385  14.742  14.272  14.319  16.512  17.586
   14.691  16.408  13.016  16.039  14.318   9.720  12.289  11.621  16.336  18.459
   15.597  12.072  12.922  14.924  12.182  10.447   9.737  12.490  16.547  18.546
   10.694  11.656   8.654  11.260   7.994   8.608   4.070   6.317  13.447  15.255

    1.300  15.880
   20.443  23.780  22.141  17.951  19.584  18.202  16.053  14.004  18.083  19.684
   18.352  21.450  21.721  20.993  16.020  17.032  13.301  17.432  16.862  19.331
   23.087  21.214  22.393  18.805  17.963  17.529  18.842  15.381  19.284  17.543
   22.892  20.044  18.766  17.343  17.033  15.570  17.213  17.030  19.124  20.674
   21.260  20.494  18.179  15.399  13.893  16.370  17.211  19.432  15.667  19.465
   16.973  20.026  14.634  14.480  15.323  17.955  14.972  15.878  14.729  19.137
   14.913  16.205  15.330  15.961  16.258  14.665  13.654  14.968  16.821  16.914
   14.047  16.051  12.527  15.786  14.019  10.501  11.757  12.201  17.298  17.892
   15.493  12.093  12.497  14.525  11.514  10.137   8.842  12.746  17.349  18.318
    9.724  12.782   8.747  11.096   8.079   9.104   3.298   6.654  14.319  14.080

    1.350  15.768
   21.177  23.551  22.083  18.224  18.729  18.866  16.187  14.307  18.287  19.006
   17.640  22.482  21.068  21.148  16.939  18.000  14.072  17.005  16.905  19.788
   22.618  21.144  22.564  18.468  17.903  16.405  18.914  15.840  19.210  18.024
   22.743  18.311  18.915  17.095  17.033  16.138  17.543  17.014  18.925  19.258
   21.003  20.985  18.573  14.804  14.084  15.985  17.437  19.080  15.393  18.591
   17.244  19.863  14.557  14.318  15.623  18.419  15.270  16.071  15.028  19.428
   15.198  15.761  15.383  16.308  16.499  14.788  13.313  15.011  16.973  16.531
   14.259  16.503  12.505  15.760  13.661  10.068  11.996  12.405  17.221  17.966
   15.853  13.163  12.117  14.297  12.780   9.532   8.882  12.853  17.198  17.633
    9.780  12.434   9.556  10.455   7.843   8.957   2.683   8.356  14.626  13.887

    1.400  16.730
   21.118  22.675  22.554  18.078  20.075  18.903  15.278  14.752  17.982  18.592
   18.506  22.029  21.663  20.799  16.409  17.786  13.386  16.980  16.569  19.579
   22.079  20.608  23.163  18.404  17.996  17.039  19.330  16.342  19.124  18.271
   21.819  18.618  19.244  17.058  17.131  17.080  17.598  18.200  18.293  18.849
   20.952  20.668  18.141  14.658  14.815  16.761  17.392  18.637  15.218  17.701
   18.190  20.566  15.347  13.198  16.533  17.725  14.557  15.257  15.171  19.052
   15.790  16.286  15.523  16.971  16.743  14.770  14.022  14.752  16.351  16.036
   14.368  16.874  12.858  16.295  14.769   9.280  12.146  12.329  16.100  18.038
   15.744  14.085  10.515  14.046  12.763   9.973   9.435  13.559  17.081  17.774
   10.701  13.527  10.701  10.558   8.110   8.659   3.491   8.136  15.060  13.961

    1.450  16.041
   21.106  23.257  23.480  19.088  20.181  17.997  15.100  13.842  18.434  18.646
   18.549  22.819  21.583  19.944  16.623  18.229  14.272  17.656  15.445  19.801
   21.648  20.997  22.786  19.255  18.491  17.408  17.950  16.941  18.517  19.145
   23.014  17.877  19.314  16.435  16.456  17.827  18.459  17.881  18.127  19.806
   20.445  20.736  17.736  15.873  14.242  16.770  17.905  18.774  15.136  16.795
   17.551  21.945  14.437  13.352  16.669  17.598  13.936  15.476  15.356  18.912
   15.147  17.029  15.141  17.229  16.261  14.359  14.407  14.542  16.272  15.730
   13.855  17.319  13.328  15.795  14.449   9.814  12.248  13.010  16.076  18.153
   15.999  13.667  10.740  13.488  12.194  10.441   9.595  13.087  16.707  17.991
   10.480  14.055  10.207   9.650   7.767   6.782   3.926   7.544  14.738  13.798

    1.500  16.009
   21.408  22.847  24.147  18.545  19.393  17.198  15.793  13.261  18.533  18.753
   17.650  22.537  21.705  19.907  16.877  18.195  13.298  17.263  16.764  21.533
   22.465  21.009  22.500  18.859  19.774  17.194  18.370  17.180  19.031  19.387
   21.931  18.767  18.748  17.124  17.416  18.320  18.240  17.535  17.976  20.600
   20.712  20.832  17.588  16.313  13.835  15.762  19.341  19.177  14.936  17.107
   18.043  21.453  13.983  13.680  16.818  16.924  13.861  15.708  15.779  18.340
   14.949  16.153  16.007  17.439  16.415  15.371  14.704  12.984  16.041  15.936
   13.239  17.694  13.441  15.810  14.201   9.135  11.691  13.121  15.024  17.788
   16.173  14.074  11.345  14.063  12.193   9.329   9.545  14.516  16.930  18.321
   10.387  14.259  10.142   9.748   7.382   8.152   4.973   7.668  14.692  13.734

    1.550  16.526
   21.579  22.820  24.880  19.206  19.275  16.798  15.344  13.216  18.440  19.273
   16.701  23.006  21.210  21.364  17.060  16.958  13.394  17.602  16.473  22.115
   22.957  20.894  21.479  19.068  18.877  16.816  18.490  17.191  19.148  18.781
   22.331  18.115  18.265  17.349  18.072  17.923  18.130  18.022  16.985  19.683
   20.417  20.999  17.257  16.976  14.373  15.501  18.948  19.014  15.088  16.240
   19.004  21.120  14.524  13.760  16.939  16.699  14.264  14.826  15.638  18.320
   14.452  17.539  15.531  16.499  15.481  15.427  15.032  12.247  15.254  16.156
   13.641  17.581  14.521  15.529  13.764   8.891  11.896  12.349  14.759  17.301
   16.097  13.698  11.791  14.462  13.214   9.819   9.658  14.404  17.613  18.598
   10.892  14.329   9.083  10.076   7.330   8.183   4.913   8.276  14.315  13.680

    1.600  16.317
   20.952  22.567  25.026  18.701  19.718  17.402  15.425  13.719  17.344  20.178
   16.648  22.305  20.945  22.221  16.830  16.904  13.910  16.038  16.019  21.900
   23.856  21.039  20.736  19.163  19.077  17.650  18.338  16.087  18.604  18.252
   22.769  18.422  18.767  17.323  17.174  16.975  19.758  18.330  17.116  20.746
   20.133  21.395  17.731  16.840  13.362  15.244  17.936  18.100  15.317  17.630
   19.655  20.729  14.611  13.739  16.774  16.326  14.133  15.366  16.912  18.592
   14.562  17.728  15.607  16.184  15.155  16.057  14.512  13.161  14.840  16.441
   14.053  16.865  14.248  14.927  14.141   9.566  12.247  11.600  13.114  17.284
   15.562  14.052  12.719  13.987  13.341  10.990   9.669  15.106  18.023  18.563
   11.589  13.747   7.996  10.433   7.675   8.122   4.737   7.780  14.769  14.678

    1.650  16.494
   20.850  22.008  25.106  19.631  19.573  17.864  15.782  14.274  17.734  20.647
   16.479  22.474  21.181  21.564  18.561  16.386  13.649  15.613  16.050  21.146
   24.578  20.788  21.527  19.978  18.937  17.012  18.805  15.755  17.702  18.655
   21.562  18.905  19.355  17.077  17.262  17.568  19.075  18.508  17.858  20.726
   19.270  21.634  18.254  16.233  13.481  15.857  18.045  17.123  15.986  17.368
   19.328  21.462  14.630  14.841  17.462  16.509  14.525  15.933  16.584  18.189
   14.344  17.631  15.276  15.587  15.071  14.004  14.922  13.456  14.522  16.961
   14.689  16.127  13.297  14.972  14.181   9.228  10.614  11.133  13.479  18.515
   15.788  14.581  12.562  12.912  12.862  11.215   9.586  14.424  17.260  18.438
   11.140  13.904   9.083  11.371   7.600   8.655   5.106   8.540  14.741  14.420

    1.700  16.870
   21.177  21.456  25.161  18.993  20.168  17.495  15.742  13.683  17.930  20.332
   17.705  22.662  21.447  21.065  18.874  16.856  13.705  14.603  16.243  20.365
   23.864  21.171  21.549  20.240  18.610  16.160  18.130  15.028  16.790  18.871
   20.325  18.251  20.082  17.325  17.926  17.140  19.121  19.184  18.521  20.408
   19.387  21.402  17.991  15.000  12.905  16.091  17.256  18.435  15.785  17.636
   19.000  20.228  16.066  15.285  18.167  16.666  14.538  16.478  16.607  18.902
   14.322  17.303  15.416  15.960  15.171  13.640  15.552  13.601  14.211  17.709
   15.397  16.465  13.214  15.145  14.009   9.941  10.566  10.511  13.615  19.116
   15.139  15.141  12.530  12.988  13.301  10.759   9.970  14.187  16.614  19.313
   11.306  13.781   9.958  10.042   8.050   8.363   5.205   7.952  15.203  14.827

    1.750  17.338
   21.417  21.946  24.845  18.702  20.082  18.269  15.239  14.543  17.007  20.286