
This full-field turbulence file was generated by TurbSim (v1.40, 12-Sep-2008) on 27-May-2021 at 14:31:33.

 | w-comp |  Y  x  Z  | Grid Resolution (Y x Z) | Time-step | Hub Elev | Mean U |
            10    10     15.556     15.556          0.050      89.60     11.00

 Z Coordinates (m):
  -70.000 -54.444 -38.889 -23.333  -7.778   7.778  23.333  38.889  54.444  70.000

 Y Coordinates (m):
  -70.000 -54.444 -38.889 -23.333  -7.778   7.778  23.333  38.889  54.444  70.000

    0.000  -0.369
   -0.064   0.320  -0.475  -0.345  -0.073   0.431  -0.876   0.208   0.823  -0.011
    0.034   0.405   1.376   0.331   0.710  -0.552  -0.357  -0.428   0.785  -0.161
   -0.334   1.451   0.394  -0.319  -0.269   0.455   1.997  -0.754  -0.090   1.121
   -1.254   0.181   1.554   0.116  -0.746  -1.405   0.793  -2.208   1.624   0.213
   -0.415   1.057   0.197   1.288   1.261   0.277  -1.434  -0.448  -1.326  -1.192
   -0.209   0.933   0.491   0.587   0.469   1.080  -0.113   0.203   0.786   0.138
   -0.260   0.825   0.408  -1.699   0.713  -0.560  -1.456   0.531  -0.036   0.010
    0.718   0.045   1.152  -0.599   0.284  -0.501  -0.266   1.097   0.764   1.362
    1.353   0.964  -1.923  -0.757   1.058   0.847   1.925   0.061   1.938   1.185
   -1.574   1.465  -0.998  -2.637  -0.574   0.466  -0.629   1.669   1.019   0.009

    0.050  -0.745
   -0.273  -0.010  -0.134  -0.458  -0.198   0.766  -0.980   0.330   0.076   0.213
   -0.023   0.023   1.463   0.103   0.447  -0.315  -0.575  -0.602   0.700  -0.590
   -0.476   1.689   0.593  -0.773  -1.116   0.503   2.011  -0.803  -0.696   0.082
   -1.504  -0.193   1.953   0.379  -0.647  -0.905   0.961  -2.096   1.379   0.575
   -0.823   1.632   0.081   2.291   1.012   0.200  -1.767  -0.392  -0.957  -1.245
    0.436   1.257   0.553   0.833   1.001   0.995  -0.206  -0.030   0.518   1.110
   -0.178   0.646   0.070  -1.383   0.916  -0.868  -1.743   0.457   0.296   0.254
    0.740  -0.032   1.237  -0.703   0.267  -0.472  -0.155   1.204   0.822   1.946
    0.733  -0.221  -1.651  -0.885   0.859   0.615   2.213   0.764   1.505   1.273
   -1.934   1.455  -1.036  -3.333  -0.544   0.726  -0.192   2.261   0.337   0.034

    0.100  -0.352
    0.076  -0.285   0.101   0.329   0.294   0.841  -0.896   0.837   0.152   0.357
   -0.167   0.058   1.504  -0.101   0.628  -0.528  -0.538  -0.678   0.724  -0.076
   -0.862   1.705   1.010  -0.627  -1.185   0.709   1.885  -0.600  -1.060   0.083
   -1.360  -0.274   2.182   0.484  -0.846  -0.988   0.945  -2.321   1.738   0.349
   -0.383   0.769   0.190   2.348   1.131   0.438  -1.529  -0.101  -0.881  -1.324
    0.734   1.177   0.143   0.775   1.129   0.608  -0.300   0.318   0.235   0.694
    0.049   1.301   0.321  -1.060   0.830  -0.574  -1.304   0.494   0.635   0.271
    0.039  -0.482   1.113  -1.227   0.143  -0.309  -0.516   1.245   1.344   1.498
    0.411  -0.414  -1.650  -0.987   1.159   0.253   2.437   1.038   1.303   0.821
   -2.156   0.813  -1.144  -3.186  -0.171   0.191  -0.494   2.181   0.651   0.829

    0.150  -0.531
   -0.625  -0.389   0.043   0.057   0.185   0.378  -1.277   0.413  -0.271  -0.177
   -0.328   0.273   1.672  -0.037   1.289  -0.585  -0.425  -0.730   1.487  -0.089
   -0.266   1.523   0.975   0.274  -0.985   0.364   1.186  -0.758  -1.272  -0.031
   -1.560   0.373   2.646   0.119  -0.685  -0.838   1.052  -2.157   1.800   0.308
   -0.025   0.574  -0.030   2.005   1.002   0.967  -1.594   0.202  -1.261  -0.658
    1.200   0.170  -0.412   0.251   1.299   0.752  -0.088   0.002   0.739   0.390
   -0.012   1.350   0.682  -1.037   0.657  -0.385  -0.974   0.154  -0.158   0.393
   -0.092  -0.677   0.868  -1.324   0.769  -0.419  -0.393   0.721   1.098   1.305
    0.287   0.138  -1.193  -1.882   1.280   0.048   2.183   0.339   1.021   0.663
   -1.752   0.272  -0.688  -3.407   0.114   0.237  -0.460   2.297   0.635   1.101

    0.200  -0.552
   -0.587  -0.696  -0.243  -0.380   0.233   0.657  -0.850   0.170  -0.444   0.026
   -0.335   0.601   1.935  -0.379   1.716  -0.437  -0.070  -0.627   1.705   0.294
   -0.506   1.406   1.063   0.424  -0.818   0.166   0.778  -0.818  -1.091   0.303
   -1.674   0.593   3.411  -0.272  -1.079  -0.665   1.318  -1.870   1.203   0.573
   -0.200   0.429  -0.176   1.856   0.793   0.829  -1.781  -0.087  -0.789  -0.468
    0.910   0.218  -0.536   0.120   0.639   0.504   0.059  -0.108   0.446   0.125
    0.133   1.566   0.689  -1.141   0.335  -0.632  -1.199  -0.414  -0.193  -0.523
    0.159  -0.722   0.669  -1.677   0.973  -0.861  -0.359   0.594   0.803   1.260
    0.531  -0.144  -1.089  -1.271   1.161  -0.047   2.741   0.419   0.010   1.308
   -1.381   0.827  -0.928  -2.998  -0.273   0.048   0.110   2.493   0.845   1.386

    0.250  -0.712
   -0.870  -0.504  -0.124  -0.785  -0.075   0.187  -1.355   0.942  -0.922  -0.491
   -0.220   0.957   2.295  -0.368   1.931  -0.285  -0.052  -1.187   1.472  -0.389
   -0.078   1.243   1.327  -0.200  -1.210   0.588   0.540  -1.212  -0.856   0.362
   -1.879   0.429   3.704  -0.250  -0.631  -0.268   1.167  -2.153   1.354   0.652
   -0.441   0.451   0.035   1.143   1.015   0.865  -1.814   0.347  -0.188  -0.422
    1.010   0.247  -0.377   0.477   0.426   0.452  -0.062   0.042   0.625   0.348
   -0.158   0.913   0.283  -1.430   0.454  -0.769  -1.088  -0.210  -0.390  -0.055
   -0.044  -0.479   0.501  -1.465   1.060  -0.057  -0.360   0.449   0.733   1.584
    0.706  -0.179  -1.399  -1.241   1.073   0.421   2.986   0.519   0.036   1.361
   -1.174   0.877  -1.001  -2.449  -0.625  -0.192  -0.131   2.312   1.457   0.903

    0.300  -0.517
   -1.029  -0.394  -0.023  -0.389  -0.098  -0.124  -1.426   0.535  -1.105   0.034
    0.061   1.670   1.624  -0.251   2.322   0.493  -0.418  -1.273   1.072  -0.433
   -0.071   1.136   1.254  -0.074  -1.599   1.017   0.960  -1.449  -0.958   0.246
   -1.413   0.186   3.569  -0.146  -0.666   0.043   0.883  -2.175   1.552   0.634
   -0.725   0.507   0.412   0.807   1.494   0.648  -1.925   0.442  -0.461  -0.548
    1.016   0.215  -0.216   0.526   0.334   0.997  -0.094  -0.052   1.060   0.186
   -0.330   1.049   0.151  -1.178   0.061  -0.548  -1.014   0.234  -0.344  -0.005
   -0.399  -0.358   0.795  -1.391   0.762  -0.395  -0.517   0.369   0.865   1.451
    0.805  -0.251  -1.644  -1.266   1.185   0.900   2.449   0.772   0.607   1.263
   -0.939   0.709  -0.459  -2.580  -0.476   0.342  -0.211   1.957   0.989   0.878

    0.350  -0.463
   -0.840  -1.007  -0.536  -0.355  -0.097  -0.297  -1.561   0.039   0.255   0.110
    0.653   1.399   1.385  -0.331   2.223   0.662  -0.296  -0.482   1.036  -0.245
   -0.809   1.173   1.437  -0.176  -1.364   0.564   0.531  -1.281  -1.311  -0.257
   -1.304   0.399   3.362  -0.159  -0.507   0.189   0.406  -2.179   1.712   0.011
   -0.333   1.165   0.426   0.888   1.593   0.324  -2.279   0.017  -0.804  -0.991
    0.734  -0.107   0.065   0.140   0.182   0.857   0.217  -0.309   1.237   0.203
   -0.104   1.306   0.528  -1.183   1.331  -0.170  -0.970  -0.118  -0.026   0.703
    0.004  -0.276  -0.053  -1.828   0.688  -0.535  -0.631   0.683   0.855   1.208
    0.581  -0.048  -1.632  -1.156   1.451   0.929   1.843   0.899   0.698   1.274
   -1.527   1.133  -0.233  -2.629  -0.105   0.428  -0.795   1.601   1.076   0.755

    0.400  -0.071
   -0.940  -1.034  -0.798  -0.415  -0.278  -0.042  -1.259  -0.342   0.227   0.019
    0.892   0.835   1.045   0.026   1.904   0.248   0.163  -0.153   1.032   0.170
   -1.153   0.659   1.154   0.354  -0.735   1.057   0.071  -1.059  -1.302   0.025
   -1.431   0.421   2.463  -0.698  -0.746   0.054   0.392  -2.961   1.718  -0.020
   -0.227   1.284   0.485   0.876   1.483   0.449  -2.136   0.448  -0.326  -0.592
    0.738  -0.522   0.713   0.566   1.077   0.490   0.060   0.157   1.298   0.430
   -0.162   1.307   0.400  -1.832   1.711   0.146  -1.043   0.199   0.265   1.021
   -0.201  -0.231   0.009  -1.525   0.334  -0.951  -0.344   0.877   0.676   1.499
    0.400  -0.539  -1.765  -1.576   1.429   0.639   1.813   0.227   0.836   1.220
   -1.800   0.719  -0.384  -2.842  -0.018   0.376  -1.021   1.295   0.784   0.653

    0.450  -0.012
   -0.998  -1.305  -1.254   0.106  -0.419  -0.292  -1.153  -0.540  -0.395  -0.060
    1.226   0.617   1.439   0.223   1.041   0.184   0.435  -0.668   1.344   0.355
   -0.753   0.934   0.548   0.360  -0.970   1.023   0.685  -1.820  -1.193   0.637
   -1.608   0.102   2.025  -0.441  -0.952   0.313   0.559  -3.031   1.187   0.005
    0.383   0.670   0.620   0.862   1.844   0.506  -1.792   0.257  -0.181  -1.028
    0.435  -0.933   0.334   0.679   0.952   0.437   0.675   0.676   1.840   0.347
   -0.105   1.921   0.613  -1.810   1.852   0.143  -1.473   0.737   1.044   1.185
   -0.184  -0.288   0.729  -1.428   0.104  -0.571  -0.884   0.921   0.766   1.529
    0.483  -0.433  -1.998  -1.460   1.660   0.044   1.674   0.213   0.828   1.312
   -2.017   1.047   0.146  -2.829  -0.993  -0.012  -0.588   1.031   0.577   0.742

    0.500  -0.499
   -1.037  -1.208  -0.710  -0.563   0.088  -0.353  -1.057   0.595  -0.355  -0.292
    1.190   0.492   0.973  -0.234   1.353  -0.200   0.034  -0.838   1.116  -0.218
   -0.396   0.778   0.507  -0.303  -0.386   1.465   0.766  -1.882  -1.100   0.187
   -1.632   0.159   1.661  -0.805  -0.869   0.436   0.453  -2.923   1.570  -0.194
    0.832   0.482   0.784   0.538   2.488   0.388  -2.302   0.529  -0.574  -1.039
    0.818  -1.068   0.603   0.357   0.834   0.660   0.409   0.095   1.749   0.366
   -0.188   1.381   0.708  -1.880   1.111   0.196  -1.260   0.812   1.158   0.970
   -0.068  -0.135   0.553  -1.539   0.315  -0.758  -0.833   0.793   0.505   0.998
    0.497  -0.666  -2.002  -1.565   0.960   0.281   1.841   0.661   0.460   1.589
   -2.412   1.509   0.106  -2.630  -0.488  -0.196  -0.485   1.200   0.243   1.243

    0.550  -0.604
   -1.184  -0.581  -0.497  -0.629   0.038  -0.553  -0.809   0.409  -0.705   0.135
    0.955   0.738   1.086  -0.496   0.804  -0.055  -0.061  -0.295   0.695  -0.019
   -0.861   0.946   0.708  -0.203  -0.697   1.386   0.471  -2.099  -1.272   0.818
   -1.920   0.225   1.319  -1.421  -0.620   0.718   0.718  -2.861   1.519   0.379
    0.899   0.360   0.593   0.432   2.351   0.404  -2.314   0.625   0.068  -2.215
    0.262  -1.381   0.765   0.301   1.200   0.710   0.503  -0.128   2.236   0.184
   -0.795   1.168   0.127  -1.833   0.689   0.863  -1.325   0.739   0.258   0.834
   -0.491  -0.321   0.166  -2.149   0.257  -0.645  -0.357   1.194   0.384   1.767
    0.343  -0.737  -1.601  -1.619   0.880   0.129   2.221   0.219   0.355   1.728
   -1.891   1.808  -0.489  -1.964  -0.587  -0.116  -0.524   1.104  -0.603   1.654

    0.600  -1.247
   -1.436  -0.207  -1.214  -0.408  -0.162  -0.334  -0.607   0.287   0.040  -0.085
    0.866   0.256   0.852  -0.244   1.165  -0.080  -0.351   0.250   0.505  -0.625
   -0.711   1.322   0.908  -0.062  -0.906   1.798   0.061  -1.879  -0.880   1.112
   -2.136  -0.045   1.121  -1.151  -0.314   0.706   1.123  -2.608   1.060   0.416
    0.933   0.580   0.565   0.792   2.759   0.480  -2.104   0.498  -0.105  -1.910
    0.460  -1.597   0.393  -0.143   1.735   1.285   0.458  -0.506   1.713  -0.013
   -0.966   1.414   1.003  -1.579   0.823   0.611  -1.720   0.506   0.021   0.588
   -0.423  -0.886   0.321  -1.950  -0.033  -0.378   0.185   0.762   0.885   1.658
   -0.002  -0.989  -1.863  -1.477   0.825   0.152   2.346   0.325   0.668   1.563
   -1.651   0.772  -0.837  -1.964  -0.577   0.345  -0.772   1.200  -0.682   1.057

    0.650  -1.282
   -1.015   0.191  -1.525  -0.565  -0.105   0.055  -0.997   0.510   0.720   0.236
    0.693   0.177   0.462   0.213   1.167  -0.117  -0.725   0.144   0.934  -0.447
   -0.055   1.924   0.927   0.238  -1.134   1.745   0.089  -1.851  -0.130   0.572
   -1.977   0.124   1.273  -1.987  -0.226   1.094   0.563  -2.599   0.673   0.632
    0.097   0.949   0.159   0.330   2.551   0.011  -2.178  -0.059  -0.166  -1.498
    0.000  -2.186   0.276  -0.412   1.712   0.865   0.366  -0.545   2.041  -0.619
   -0.902   0.744   1.113  -0.916   0.707   0.559  -1.023   0.333  -0.027   0.929
   -0.615  -0.775   0.168  -1.681   0.167  -0.263  -0.187   1.156   0.909   1.663
    0.522  -0.942  -2.046  -1.289   0.065  -0.123   2.246   0.691   0.288   0.957
   -1.738   0.720  -1.231  -2.174  -1.195   0.635  -0.976   0.901  -0.091   0.677

    0.700  -1.213
   -0.802   0.136  -0.915  -0.770  -0.061  -0.172  -0.409   0.403   0.422   0.228
    0.907   0.081   0.160  -0.012   0.665  -0.138  -1.044   0.144   0.865  -0.742
    0.409   1.871   1.001  -0.287  -0.248   1.599   0.529  -1.923   0.003   0.443
   -2.197   0.233   1.709  -1.978  -0.272   0.675   0.544  -2.128   0.614   0.268
   -0.239   0.969   0.379  -0.161   1.929  -0.090  -2.596   0.367  -0.338  -1.102
    0.142  -2.573   0.181   0.256   1.545   0.788   0.033   0.125   2.191  -0.417
   -0.448   1.432   0.582  -1.260   0.425   0.089  -1.382   0.080   0.038   0.893
   -0.658  -0.942   0.076  -1.379   0.107   0.090  -0.210   1.448   0.462   2.006
    0.181  -1.515  -1.640  -1.301   0.313  -0.550   1.716   0.756   0.188   0.514
   -1.832   0.637  -1.527  -2.201  -1.096   0.369  -1.065   0.466  -0.388   0.175

    0.750  -0.560
   -1.301  -0.166  -0.580  -0.803   0.230  -0.308   0.265   0.293   0.734   0.501
    0.711   0.584   0.069   0.064   0.928   0.137  -1.285   0.368   1.095  -1.076
    1.177   1.888   1.215   0.101  -0.171   1.388   0.502  -1.798  -0.288   1.003
   -1.740  -0.565   1.733  -2.107   0.167   0.291   0.661  -2.419   0.522  -0.154
   -0.383   0.669   0.130  -0.238   2.081  -0.027  -2.144   0.494  -0.667  -1.328
    0.522  -1.698  -0.326  -0.259   1.849   0.884   0.701   0.181   1.861  -0.462
   -0.537   0.901   0.393  -0.851   0.464  -0.130  -1.578  -0.044   0.259   0.554
   -0.435  -0.677   0.712  -1.290  -0.303  -0.333  -0.509   1.263   1.250   2.106
    0.403  -1.114  -1.721  -0.830   0.682  -0.150   1.470   1.060   0.125   0.285
   -1.644   0.239  -1.822  -2.532  -1.064  -0.172  -0.420   0.807   0.195  -0.176

    0.800  -0.314
   -0.592   0.095  -0.991  -0.868  -0.228  -0.326   0.480  -0.232   0.105   0.117
    0.933   0.695   0.062   0.578   0.873   0.212  -0.595   0.176   1.555  -0.911
    0.609   1.743   1.153   0.018  -0.982   1.282   0.322  -1.216  -0.397   1.400
   -1.594  -0.949   1.426  -2.050   0.089   0.548   1.009  -1.950   0.611   0.125
   -0.625   0.711  -0.150  -0.350   2.091   0.690  -1.796   0.216  -0.866  -1.900
    0.698  -1.506  -0.196  -0.081   1.359   0.689   0.372   0.500   1.417  -0.406
   -0.359   1.185   0.510  -0.661   0.554  -0.042  -1.446   0.584   0.467   0.961
   -0.443  -0.492   0.797  -0.958   0.054  -0.429  -0.401   1.040   1.906   2.830
    0.498  -1.283  -1.342  -0.105   1.064   0.481   1.749   0.506   0.131   0.325
   -1.650  -0.046  -1.626  -2.459  -0.568  -0.086  -0.393   0.966  -0.498   0.278

    0.850  -0.465
   -0.471  -0.037  -0.702  -0.941  -0.640  -0.214   0.043  -0.389  -0.887   1.055
    1.117   0.588   0.131   0.767   0.970   0.325  -0.745   0.588   1.873  -0.755
    1.712   1.726   0.561  -0.304  -0.981   1.642  -0.031  -0.687  -0.425   0.978
   -1.105  -0.925   1.708  -2.178  -0.281   0.435   0.959  -1.832   1.255  -0.300
   -0.278   0.554  -0.191  -0.021   1.786   0.713  -2.040  -0.667  -0.740  -1.495
    0.426  -1.522   0.091  -0.784   0.438   0.497   0.062  -0.199   1.464  -0.574
   -0.203   1.040   0.493  -1.155   0.271  -0.094  -1.656   0.326   0.409   0.592
   -0.809  -0.809   0.825  -0.689   0.268  -0.703  -0.040   1.494   1.934   2.546
    0.352  -1.601  -1.326   0.076   0.794   0.617   2.320  -0.207   0.461   0.131
   -1.361   0.027  -0.959  -2.436   0.500  -0.264  -0.361   0.924  -0.356   0.825

    0.900  -0.430
   -0.916  -0.130  -0.081  -0.699  -0.430  -0.189  -0.174  -0.278  -0.876   1.102
    1.510   0.465  -0.152   0.592   0.992   0.304  -0.595   0.469   2.192  -1.408
    1.724   2.027   0.665  -0.550  -0.984   1.829  -0.155  -0.655  -0.357   1.710
   -0.888  -1.047   2.037  -2.179   0.080   0.782   0.343  -2.988   1.404  -0.584
   -0.274   0.544  -0.071   0.084   2.076   0.705  -2.065  -0.779  -0.067  -1.135
   -0.194  -1.555  -0.790  -0.297   0.667   0.578   0.144  -0.002   1.988  -0.658
   -0.391   0.678   0.338  -0.948   0.413   0.062  -1.355   0.337   0.287   0.760
   -0.331  -1.161   0.757  -1.211   0.609  -0.791  -0.221   1.581   1.746   2.268
    0.528  -1.076  -1.292  -0.385   0.520   0.218   2.185   0.098   0.685   0.310
   -1.632  -0.055  -1.351  -1.940   0.566   0.211   0.020   1.219   0.071   0.421

    0.950   0.196
   -0.702   0.469  -0.574  -0.513  -0.376   0.149   0.093  -0.174  -0.400   0.430
    1.899   0.814  -0.387   0.546   1.243   0.640  -0.731   0.568   2.111  -1.517
    0.832   2.168   1.343  -0.868  -1.438   1.760  -0.542  -0.407   0.187   2.010
   -1.435  -1.241   1.364  -1.361   0.255   0.999   0.087  -3.446   1.515  -0.709
   -0.407   0.532  -0.283  -0.284   1.537   0.440  -1.799  -0.949   0.509  -1.291
   -0.571  -2.320  -0.554  -0.166  -0.037   0.709   0.185  -0.153   1.846  -0.608
   -0.430   0.538   0.767  -1.049   0.348  -0.468  -1.309   0.501  -0.309   1.122
   -0.730  -1.261   0.645  -0.880   0.683  -0.654  -0.165   1.538   1.690   1.998
    0.261  -0.772  -1.601  -0.368   0.894  -0.030   2.383  -0.036   0.587   0.139
   -2.352  -0.215  -2.074  -1.942   0.375   0.180  -0.392   0.852  -0.369   0.177

    1.000   0.218
   -1.047  -0.045  -0.244  -0.452   0.047  -0.511   0.536  -0.470  -0.578   0.331
    1.050   1.135  -0.215   0.507   0.973   0.290  -0.339   0.455   2.221  -0.811
    0.564   1.621   1.304  -0.926  -1.353   1.659  -0.410  -0.310   0.769   1.926
   -0.964  -1.156   1.429  -0.693   0.625   0.498   0.495  -3.052   0.726  -0.807
   -0.285   0.303   0.043   0.207   1.412  -0.135  -0.560  -1.288   0.320  -1.360
   -0.971  -2.567   0.165  -0.451   0.245   0.906   0.194  -0.453   1.125  -0.533
   -0.240   0.861   0.731  -1.346   0.293  -0.255  -1.209   0.339   0.321   1.102
   -0.349  -1.508   0.477  -0.809   0.429  -1.025  -1.076   1.840   2.167   1.363
   -0.191  -1.251  -0.966  -0.919   0.868  -0.240   2.501   0.291   0.782   0.180
   -2.336  -0.568  -2.335  -2.047   0.345  -0.412  -0.701   0.773  -0.343   0.072

    1.050  -0.282
   -0.640   0.223   0.803  -0.101  -0.179  -0.438   0.318  -0.367  -0.944   0.401
    0.524   0.611   0.135   0.066   1.050  -0.087  -0.333   0.227   1.915  -0.739
    0.500   1.403   1.250  -1.231  -1.558   1.174  -0.571  -0.779   0.486   1.410
   -0.723  -1.533   1.080  -0.878   0.486   0.315   0.795  -2.919   1.202  -1.390
    0.206   0.581   0.388   0.702   1.273   0.208  -0.125  -1.859   0.297  -1.497
   -1.334  -2.217   0.188  -0.230  -0.110   1.024   0.103   0.327   0.529   0.022
    0.271   0.776   0.855  -1.022   0.053   0.587  -0.865  -0.177   0.100   1.507
   -0.791  -1.258   0.816  -0.627   0.587  -1.392  -0.609   1.680   2.031   0.741
   -0.205  -1.413  -0.820  -0.110   0.812  -0.350   2.692   0.620   0.375   0.430
   -1.809  -0.185  -2.220  -2.013   0.745  -0.189  -0.341   0.921  -0.238   0.150

    1.100   0.262
   -0.123  -0.347   0.228  -0.400  -0.278   0.170   0.680   0.165  -0.839   1.110
    0.576   1.204   0.646   0.307   1.360   0.299  -0.411   0.631   1.446  -0.987
    0.631   1.200   1.194  -1.175  -0.911   1.308  -0.869  -0.326   0.621   0.430
   -1.060  -1.687   0.677  -1.035   0.626  -0.159   1.047  -3.105   1.941  -1.512
    0.068   0.721   0.269   0.938   1.098  -0.011   0.080  -1.878   0.244  -1.254
   -1.127  -1.418   0.267   0.252  -0.003   1.199   0.267   0.681   0.331  -0.052
    0.135   0.933   1.018  -1.761  -0.456   0.632  -0.690   0.165  -0.184   1.566
   -1.466  -1.419   0.727  -0.747   0.774  -1.218  -0.342   1.399   1.785   0.547
    0.006  -1.424  -0.763   0.476   0.878  -0.919   2.796   0.555   0.887   0.577
   -1.861   0.757  -2.479  -2.760   0.480  -0.683  -0.184   0.619  -0.100   0.355

    1.150   0.608
   -0.050  -0.710   0.046  -0.768  -0.122  -0.354   0.546   0.421  -1.395   1.298
    0.597   1.300   0.969   0.397   1.123   0.707  -0.955   0.572   1.144  -0.708
    0.395   1.328   0.675  -1.002  -0.505   0.844  -0.603   0.133   1.038   1.424
   -0.567  -1.639   0.933  -0.802   0.943  -0.766   1.331  -2.422   1.699  -1.929
    0.198   1.136   0.667   1.010   1.320  -0.022   0.093  -2.035   0.060  -0.901
   -1.058  -1.275   0.514   0.510  -0.422   1.100   0.501   0.654   0.265  -0.052
    0.272   1.212   0.871  -1.811  -0.120   1.188  -0.782   0.258   0.126   1.503
   -1.827  -1.228   0.623  -0.699   0.787  -0.806  -0.656   1.214   2.080   0.609
    0.511  -1.679  -0.719   0.384   1.347  -0.937   3.191   0.134   1.228   0.487
   -1.723   0.699  -2.203  -2.534   0.464  -0.833  -0.432   0.699  -0.201   0.518

    1.200   0.680
    0.182  -0.733   0.332  -1.234  -0.644  -0.586   0.574   0.037  -2.158   1.471
    0.950   1.309   0.650   0.134   1.207   0.761  -0.859   0.475   1.424  -1.288
   -0.334   1.662   1.057  -0.575  -0.046   0.757  -0.890   0.606   0.680   1.088
   -0.439  -1.669   0.321  -0.483   0.600  -1.181   1.145  -2.623   0.796  -1.923
    0.131   1.316   1.145   1.122   1.235   0.333   0.028  -2.047  -0.447  -0.659
   -0.505  -1.339   0.766   0.892  -0.988   0.535   0.542   0.744   0.589   0.417
    1.005   0.979   0.683  -1.713  -0.580   1.395  -1.241   0.632   0.496   1.964
   -2.237  -1.256   0.265  -0.858   0.614  -1.063   0.200   0.954   2.118   0.917
    0.726  -1.606  -0.779  -0.061   0.542  -0.935   3.430  -0.135   1.051   0.396
   -1.431   0.256  -1.890  -1.947   0.729  -0.860  -0.047   0.850  -0.631  -0.280

    1.250   0.787
    0.661  -1.163   0.180  -1.079  -1.613   0.094   0.203   0.475  -2.024   1.351
    1.152   1.025   0.662   0.075   1.130   0.252  -0.959   0.825   1.231  -0.909
   -0.269   1.109   0.594  -0.414   0.360   0.592  -0.196   0.757   0.994   0.969
   -0.329  -1.395   0.247  -0.484   0.435  -1.302   1.304  -2.319  -0.042  -1.271
    0.325   1.868   0.952   1.134   1.162   0.752   0.403  -1.932  -0.651  -0.468
    0.348  -1.137   0.483   0.597  -0.874   0.542   0.990   1.066   0.566   0.117
    0.745   1.119   0.868  -1.524  -0.337   0.686  -1.650   0.763   0.115   1.362
   -1.756  -0.814   0.870  -1.377   1.271  -0.426   0.299   0.471   1.818   1.290
    0.782  -1.481  -1.320   0.167   1.058  -1.272   3.050  -0.017   0.825  -0.340
   -1.599   0.101  -1.509  -2.639   0.711  -0.807  -0.773   0.980  -0.026  -0.329

    1.300   1.028
    0.574  -0.637   0.229  -0.747  -1.457   0.338   0.185   1.001  -1.872   1.790
    1.604   1.135  -0.047  -0.057   1.167  -0.251  -0.686   0.570   0.894  -1.219
   -0.284   1.219   0.707  -0.305  -0.312   0.839  -0.209   0.494   0.343   1.320
   -0.938  -0.734   0.722  -0.584   0.257  -0.848   1.413  -2.427   0.159  -1.495
    0.183   2.221   0.439   1.335   1.306   0.906   0.591  -2.187  -1.387  -0.443
   -0.580  -1.350   0.070   0.309  -1.150   1.206   1.109   0.706   0.632   0.675
    0.751   0.607   0.699  -1.848   0.048   0.822  -2.064   0.278   0.647   1.641
   -1.517  -0.184   0.421  -0.727   0.938  -0.611  -0.254   0.340   1.444   1.842
    0.017  -1.611  -1.554   0.494   1.681  -1.071   3.129  -0.412  -0.166   0.115
   -1.888   0.247  -1.146  -2.104   0.895  -0.901  -0.961   1.008  -0.290   0.416

    1.350   0.899
    0.258  -0.652   0.241  -0.426  -1.665   0.183  -0.133   0.447  -1.572   1.877
    1.531   0.920   0.229   0.193   1.090  -0.765   0.212   0.483   0.774  -1.162
   -0.183   1.495   0.728  -0.593  -0.567   1.023  -0.468   0.225   0.188   1.502
   -0.702  -0.768   0.230  -0.607   0.936  -0.374   1.285  -2.488   1.020  -1.134
    0.115   2.700   0.375   0.974   1.137   0.419  -0.029  -2.033  -1.326  -0.351
    0.027  -1.100  -0.094   0.419  -0.893   1.384   0.275   0.992   0.715   0.923
    0.082   0.092   0.635  -1.408   0.425   0.851  -1.457   0.469   0.724   1.210
   -1.689  -0.684   0.281  -0.521   1.086  -0.958   0.066   0.334   1.400   1.731
    0.200  -1.826  -1.417   0.450   1.555  -0.839   2.760  -0.087   0.347  -0.411
   -1.590   0.459  -1.075  -2.203   0.700  -0.853  -1.399   0.566  -0.407   0.704

    1.400   0.321
    0.084  -1.277   0.689  -0.871  -1.231  -0.020   0.169   1.094  -1.507   1.502
    0.689   0.796  -0.224   0.554   0.513  -1.192  -0.095   0.576   0.009  -1.193
   -0.080   1.247   0.191  -0.396  -0.555   1.407   0.170   0.540   0.408   2.166
   -0.834  -1.285  -0.421  -0.772   0.856  -0.249   0.941  -2.199   1.227  -0.927
   -0.021   1.816   0.616   0.790   0.539   1.174   0.057  -2.113  -0.675  -0.273
   -0.203  -1.292   0.096   0.385  -0.769   1.221   0.559   0.395   0.765   1.414
    0.217  -0.390   0.349  -1.151   0.644   0.275  -1.419   0.405   1.035   1.395
   -1.676  -0.795   0.130  -0.842   1.386  -0.929  -0.134   0.828   0.786   1.731
    0.684  -1.422  -1.281   0.446   1.908  -0.842   2.496  -0.198   0.311   0.028
   -1.080   0.266  -1.134  -2.394   1.127  -1.048  -1.311   0.430  -0.589   1.150

    1.450   0.392
    0.180  -0.741   0.718  -0.757  -1.031  -0.593   0.679   1.056  -1.279   1.018
    0.074   1.392  -0.153   0.680   0.084  -0.680   0.453   0.783   0.610  -1.402
   -0.214   1.711   0.038   0.511  -0.765   1.333  -0.377   0.321   0.430   1.947
   -0.951  -0.952  -0.398  -0.264   0.603   0.116   1.548  -1.774   1.235  -0.899
   -0.344   1.258   0.821   1.172   0.625   1.387  -0.236  -1.088  -0.163  -0.084
   -0.100  -1.533  -0.060   0.984  -0.392   0.727   0.963   0.442   0.534   1.526
    0.208  -0.177   0.240  -1.008   0.523   0.015  -1.374   0.585   0.850   1.903
   -1.045  -1.105   0.058  -1.143   1.303  -0.733  -0.305   1.114   0.173   1.920
    0.477  -1.022  -1.130   0.773   1.817  -0.927   2.832  -0.422  -0.121   0.135
   -0.983   0.516  -1.291  -1.764   1.605  -1.360  -0.701   0.589  -0.998   0.574

    1.500   0.511
    0.687  -0.430   0.745  -1.003  -0.647  -0.703   1.029   0.804  -1.023   1.276
   -0.261   1.469  -0.577   0.850  -0.268  -0.044   0.791   0.760  -0.009  -1.478
   -0.449   1.001   0.477   0.911  -0.746   1.057  -0.530   0.489   0.405   1.581
   -1.453  -0.513  -0.188  -0.819   0.655  -0.054   1.337  -1.677   1.115  -0.588
   -0.483   1.433   0.843   1.191  -0.041   1.623  -0.282  -0.955  -0.133  -0.201
    0.605  -1.703  -0.504   0.716  -0.180   1.596   1.223   0.370   0.515   1.383
    0.449   0.367   0.574  -0.938   0.346   0.000  -0.872   0.738   0.871   2.196
   -0.720  -1.351   0.211  -1.055   0.544  -0.808   0.077   0.866   0.027   1.732
    0.019  -1.605  -1.453   0.644   1.663  -1.431   1.862  -0.828  -0.339   0.287
   -1.359   0.093  -0.918  -1.289   1.503  -1.350  -0.923   0.488  -1.269   0.412

    1.550   0.659
    0.939  -0.658   0.853  -0.427  -0.540  -0.771   0.684   0.807  -1.583   0.808
   -0.441   1.079  -0.021   1.076   0.009  -0.423   0.484   0.844   0.506  -1.337
   -0.676   0.482   0.131   0.851  -0.578   0.197  -0.113   0.489   0.110   1.098
   -1.332  -0.687  -0.915  -1.420   0.311  -0.282   1.191  -0.970   1.000  -0.345
   -0.390   0.993   0.686   0.267   0.003   1.228  -0.504  -0.971  -0.522  -0.116
    0.233  -1.151  -1.019   0.962   0.346   2.027   1.211   0.335   0.105   1.016
    0.643   0.473   0.161  -1.006  -0.091  -0.800  -1.154   0.733   0.863   2.246
   -0.748  -1.062  -0.153  -1.196   0.607  -1.028   0.539   0.704   0.021   1.383
   -0.102  -1.144  -1.012   0.595   1.658  -1.298   1.329  -1.037   0.036   0.492
   -0.951   0.084  -0.335  -1.633   1.171  -1.480  -0.742   0.828  -1.066   0.074

    1.600   0.594
    1.347  -0.596   1.337  -1.060  -0.294  -0.833   0.044   0.979  -1.862   0.871
    0.417   0.614   0.185   1.006   0.666  -0.437   0.727   0.330   0.813  -0.719
   -0.851   0.695  -0.498   0.691  -0.857  -0.143   0.511   0.219   0.377   1.206
   -1.332  -0.351  -0.691  -1.392   0.221   0.213   0.713  -1.483   1.103  -0.395
   -0.779   0.791   0.471   0.760  -0.022   1.050  -0.264  -1.248  -0.585   0.303
    0.732  -1.421  -0.732   0.593   0.141   1.817   0.583   0.080  -0.005   0.703
    0.546   1.092   0.057  -1.227  -0.503  -0.539  -1.069   0.766   1.583   1.711
   -0.901  -1.413  -0.023  -1.040   0.823  -0.590   0.079   0.741   0.191   1.500
   -0.622  -1.455  -0.512   0.884   1.516  -1.843   1.932  -0.477  -0.156   0.842
   -0.861  -0.036  -0.336  -2.061   1.002  -1.187  -0.614   0.830  -0.823  -0.302

    1.650   0.805
    1.504  -0.304   1.632  -0.719  -0.358  -0.823   0.507   1.003  -1.831   1.708
    0.470  -0.095   0.090   0.612   0.453  -0.431   0.294  -0.522   0.835  -0.558
   -0.992   0.859  -0.655   0.242  -0.811   0.044   0.432   0.653   0.907   0.905
   -1.019  -0.620  -0.598  -0.732   0.112   0.205   0.535  -1.450   0.789  -0.851
   -0.124   1.035   0.057   0.702  -0.411   0.949  -0.637  -1.086  -0.711   0.096
    0.524  -0.956  -0.513   0.826   0.402   1.615   0.102   0.036  -0.099   0.473
    0.046   0.917  -0.221  -0.792  -0.181  -0.466  -0.873   0.738   1.789   1.973
   -1.487  -1.164  -0.388  -1.149   0.792  -0.109  -0.446   0.736   0.035   1.120
   -0.224  -1.056  -0.600   1.021   1.505  -1.660   2.683  -1.074  -0.628   0.624
   -1.122   0.634   0.422  -1.738   1.204  -0.599  -1.047   0.969  -0.248   0.076

    1.700   0.760
    1.681  -0.053   1.800  -1.235  -0.647  -0.413   0.087   1.142  -2.075   1.934
   -0.043  -0.860   0.367   0.673   0.025   0.065  -0.040   0.305   1.066  -0.831
   -0.968   1.121  -1.332   0.011  -0.497   0.451   0.884   0.966   0.955   1.263
   -1.291  -1.107  -0.099  -0.513   0.389   0.509   0.165  -1.307   1.153  -0.924
   -0.284   0.892   0.351   0.610  -0.420   1.360  -0.207  -0.699  -0.196  -0.380
   -0.230  -1.079  -0.250   0.726   0.017   1.483   0.821  -0.293   0.041   0.288
    0.204   0.982  -0.217  -0.804   0.175  -0.728  -1.200   0.511   1.582   2.376
   -1.456  -1.159  -0.354  -1.337   0.689  -0.427  -0.626   0.456  -0.232   0.222
   -0.587  -0.326  -0.197   1.570   2.184  -1.131   2.375  -1.164  -0.813   0.598
   -1.098   0.401   0.641  -1.244   0.804  -0.564  -1.785   0.103  -0.629  -0.042

    1.750   1.187
    1.093  -0.043   1.663  -0.816  -0.673  -0.183  -0.207   0.931  -1.899   1.632