
This full-field turbulence file was generated by TurbSim (v1.40, 12-Sep-2008) on 27-May-2021 at 14:31:41.

 | u-comp |  Y  x  Z  | Grid Resolution (Y x Z) | Time-step | Hub Elev | Mean U |
            10    10     15.556     15.556          0.050      89.60     15.00

 Z Coordinates (m):
  -70.000 -54.444 -38.889 -23.333  -7.778   7.778  23.333  38.889  54.444  70.000

 Y Coordinates (m):
  -70.000 -54.444 -38.889 -23.333  -7.778   7.778  23.333  38.889  54.444  70.000

    0.000  14.691
   17.417  14.672  16.638  16.673  16.299  19.432  12.468  15.482  13.427  14.084
   15.427  16.436  12.794  16.622  17.786  14.664  13.718  15.485  15.722  15.727
   16.835  11.855  13.925  17.131  16.768  13.519  13.642  14.133  13.161  18.103
   17.151  15.803  14.325  12.834  14.013  13.188  13.811  13.745  15.655  16.543
   14.805  13.456  13.575  11.476  13.182  15.347  11.304  13.147  13.066  11.086
   14.289  14.003  11.432  11.221  13.870  13.448  10.900  13.427  11.505  10.027
   15.241  11.167  13.293  11.981  12.453  11.710  11.754  11.271  10.607  13.817
    8.754   8.631  12.454  11.641   4.767   6.836   7.499  10.517   8.799   8.019
    8.564  10.276   8.210   5.761   2.838   5.513   7.009  11.806  10.539   7.847
    6.612   6.007   6.428   5.426   4.215   6.893   4.067   6.665   8.627   6.760

    0.050  15.379
   17.234  13.776  17.161  17.598  16.828  19.433  12.276  14.821  12.492  14.466
   14.688  16.230  13.164  16.283  17.957  15.191  14.308  15.964  15.890  14.795
   16.725  11.906  13.417  16.547  16.512  13.452  13.738  14.234  13.778  18.405
   17.420  15.727  14.629  14.016  13.839  13.861  14.454  14.323  15.829  15.489
   15.361  14.173  13.816  11.618  13.888  15.500  11.069  13.882  12.519  11.418
   14.680  14.465  11.536  11.614  13.222  13.044  12.598  13.299  11.898  10.378
   15.482  11.426  13.892  10.496  12.347  12.447  12.292  10.935  11.273  14.191
    8.841   8.055  12.126  11.845   5.200   6.968   7.667   9.840   8.689   8.807
    8.732  10.248   7.606   5.844   2.407   5.690   6.719  11.621  10.811   7.276
    7.025   6.482   6.152   5.441   4.148   6.382   3.836   6.145   8.321   7.260

    0.100  14.874
   17.635  13.799  17.556  17.258  17.051  18.646  12.245  15.146  13.206  13.157
   14.687  16.855  12.526  15.428  18.707  14.170  14.757  16.407  16.560  15.102
   16.316  11.025  14.152  17.516  16.675  13.546  14.111  13.350  14.624  19.232
   16.367  15.027  15.350  13.901  13.669  13.307  14.178  15.226  15.917  16.163
   15.105  14.810  13.350  11.946  14.294  15.445  10.847  14.113  12.030  11.201
   14.993  13.970  11.890  11.714  14.077  13.880  12.882  13.861  12.017  11.568
   15.820  11.313  13.553   9.308  11.607  13.411  13.106  11.651  12.121  13.996
    7.883   9.622  12.044  11.560   5.892   6.894   7.491   9.932   9.164   8.571
    8.358  11.272   8.477   6.173   2.492   5.121   6.637  11.681  10.839   7.973
    6.703   6.672   5.551   4.551   3.460   5.435   3.966   5.803   8.727   7.342

    0.150  15.237
   17.697  14.228  17.865  17.416  16.734  18.484  12.605  14.945  13.682  13.817
   14.173  15.635  12.805  15.121  19.384  14.162  15.251  17.048  16.814  14.497
   15.994  11.739  13.958  17.493  16.984  13.754  15.096  13.431  14.865  19.565
   16.709  15.163  14.708  14.682  14.017  12.772  14.873  14.922  15.441  15.901
   14.798  15.105  12.430  11.491  14.456  14.853  10.712  14.066  11.595  10.993
   15.262  13.965  11.228  11.473  14.468  14.023  13.250  13.540  11.573  12.013
   15.656  10.484  13.386  10.135  11.332  13.670  12.334  12.460  11.820  14.088
    8.356  10.514  11.888  11.331   5.399   7.367   7.406  10.082   9.404   8.672
    8.483  10.668   8.421   5.769   3.358   5.229   6.576  12.329  10.573   7.937
    7.020   7.227   5.330   4.194   2.726   6.395   4.616   6.008   9.332   7.532

    0.200  15.879
   17.840  14.387  17.756  18.753  17.307  17.600  12.168  14.468  13.418  15.267
   14.133  16.778  13.619  14.445  18.672  14.715  16.267  16.905  16.636  13.852
   16.894  11.950  13.965  17.348  15.914  15.040  15.173  13.114  15.368  19.451
   17.219  15.415  14.359  13.593  13.430  13.426  15.234  13.740  14.989  16.392
   15.736  15.500  12.556  10.939  15.772  15.620  10.653  14.929  12.588  11.067
   15.584  15.640  11.277  11.088  14.751  13.004  12.917  13.288  11.019  11.863
   15.177  10.120  13.000  10.930  10.802  12.867  11.478  11.996  11.188  13.017
    8.021   9.794  11.463  11.790   3.790   7.389   8.321  10.567   8.996   8.375
   10.203  10.411   7.997   4.832   3.402   5.272   5.982  12.973  10.356   7.842
    6.183   7.051   5.628   3.742   2.358   5.957   3.747   5.885   8.907   6.352

    0.250  15.546
   17.708  14.212  17.036  19.484  17.916  18.576  12.407  14.872  13.733  16.227
   13.724  17.148  14.744  14.012  17.794  15.595  17.156  17.235  17.110  13.443
   17.271  13.417  14.632  16.944  15.764  14.564  15.313  13.522  14.223  19.617
   15.894  16.161  14.406  13.379  13.922  12.915  14.982  14.147  15.518  15.873
   14.412  14.899  11.744  10.784  15.559  15.485   9.237  14.798  12.953  10.789
   14.959  15.620  12.003  11.280  14.132  12.325  13.081  12.797  11.547  12.097
   15.199   9.978  12.732  10.442  11.791  11.551  10.320  12.526  10.738  13.744
    7.609   8.961  11.919  11.223   4.496   7.277   8.100  11.316   8.974   8.738
    9.588  11.432   7.672   4.972   2.848   4.913   6.537  13.098   8.856   7.857
    6.065   7.440   6.218   3.430   1.923   6.462   4.278   6.399   8.811   6.825

    0.300  15.437
   18.087  14.800  16.386  18.706  19.484  18.352  12.954  15.039  13.352  15.197
   13.455  16.436  14.921  14.164  17.766  15.537  17.128  16.416  16.978  12.869
   17.339  13.476  14.932  16.060  15.772  14.441  15.161  14.320  14.649  19.730
   16.170  16.460  13.999  13.267  14.259  13.713  14.049  14.853  15.452  15.859
   14.818  14.335  12.860  10.872  15.054  15.890   9.645  13.415  13.343  10.965
   15.668  14.529  11.943  10.312  14.469  12.979  13.249  12.440  11.377  12.670
   14.735  11.409  12.296  10.552  11.848  11.106  10.238  12.258  10.796  13.969
    6.798   8.372  11.326   9.636   4.581   7.475   7.437  11.448   8.855   9.868
   10.281  10.832   8.235   4.296   3.545   6.138   6.418  12.762   8.713   8.450
    6.165   7.462   6.813   3.390   1.821   6.652   4.151   5.960   8.400   7.192

    0.350  15.410
   17.464  15.093  16.791  18.860  20.199  18.077  12.734  15.282  13.819  14.714
   12.321  16.029  14.502  13.821  17.085  15.929  16.793  15.909  16.363  13.727
   16.687  13.748  15.750  16.571  15.595  14.691  14.635  14.226  15.540  19.835
   16.254  16.129  13.335  13.177  14.158  13.489  14.824  14.556  15.675  17.057
   14.247  14.574  13.592  11.594  15.662  15.871  10.432  13.208  13.014  10.697
   15.105  14.967  11.488  11.082  15.009  12.918  13.495  12.566  11.785  12.237
   14.394  10.799  12.201  10.183  11.713  11.871   9.895  12.308  11.222  13.591
    7.433   8.725  10.622  10.038   5.032   9.315   7.724  11.650   9.044  10.560
   10.566  10.538   8.531   4.464   2.761   5.659   6.493  13.196   7.416   8.375
    5.719   7.643   6.969   2.813   1.912   7.384   4.263   5.799   8.606   7.338

    0.400  15.401
   17.627  14.793  16.362  18.438  20.334  18.207  13.965  14.776  13.884  13.757
   12.523  16.755  12.497  14.643  17.474  15.252  16.820  15.384  16.843  14.245
   16.738  13.833  15.673  16.747  15.896  14.826  14.863  14.129  15.779  18.550
   15.329  16.230  13.687  13.679  14.456  14.567  14.561  14.611  15.853  17.182
   14.143  15.649  13.660  11.440  14.997  15.725  11.006  12.713  14.030  11.089
   15.816  15.735  11.719  11.318  13.307  12.188  12.717  12.772  11.209  11.766
   13.708   9.909  12.582  10.280  11.581  12.169   9.853  12.568  11.550  12.166
    7.687   8.630  10.102   8.985   5.826   9.163   6.731  11.739   9.622   9.971
   10.654  10.501   9.166   5.129   3.279   5.007   6.678  13.278   7.985   8.515
    5.980   6.784   6.927   3.050   2.250   7.900   5.405   5.056   8.354   7.557

    0.450  15.374
   17.531  14.647  15.912  18.528  18.959  18.755  14.453  14.213  13.095  13.362
   12.253  16.524  12.597  14.889  17.611  14.671  16.564  15.584  17.395  14.050
   16.912  13.776  15.469  16.435  16.003  14.034  14.899  14.636  16.059  19.160
   15.373  17.153  14.284  14.235  14.335  15.400  16.028  14.082  16.667  17.344
   13.818  15.615  13.779  10.287  15.529  15.732  12.304  12.423  13.330  11.121
   15.963  15.008  10.863  11.222  13.692  12.039  13.412  13.427  11.119  11.628
   13.526  10.181  13.233  10.494  11.482  11.525   9.218  12.935  11.051  12.653
    8.583   8.934  11.013   8.839   4.984   8.697   6.613  12.129   9.432  11.232
   10.021  10.683   9.920   5.697   3.148   5.714   6.642  13.341   8.627   8.531
    6.209   6.067   6.062   3.148   2.295   6.512   5.082   4.299   7.994   7.416

    0.500  15.758
   17.472  14.175  15.304  19.459  18.411  19.734  14.755  13.822  13.097  13.389
   11.923  16.358  13.304  14.733  17.825  14.265  17.274  15.621  17.911  14.164
   16.686  13.472  15.501  17.258  16.187  14.767  14.914  15.667  16.207  19.183
   15.628  17.191  14.415  14.696  14.732  14.521  16.374  15.181  16.367  16.765
   13.875  15.931  14.023  10.253  15.312  17.197  11.410  11.812  13.437  10.560
   16.105  15.173  10.175  11.713  14.061  12.414  13.331  13.059  11.305  11.001
   13.776  10.659  13.153  11.215  11.476  11.186   9.827  12.184  10.931  13.423
    8.521   8.570  11.092   9.794   5.447   8.891   6.603  12.637   8.626  11.205
    9.506  10.796   9.631   5.959   2.763   6.366   6.628  13.636   9.165   8.371
    5.409   6.516   5.922   2.820   2.500   6.529   4.205   4.354   7.722   8.144

    0.550  16.024
   16.887  14.359  15.151  19.976  18.369  19.137  14.705  14.788  13.423  13.170
   11.920  16.856  13.728  15.469  17.630  15.372  17.087  15.685  17.277  14.372
   17.240  12.834  16.180  17.547  16.993  15.051  14.325  16.495  16.456  17.728
   15.581  16.767  16.218  14.614  14.976  14.664  16.609  15.632  16.464  16.300
   13.421  17.141  14.733  10.358  15.546  17.336  12.540  11.641  14.021  10.881
   15.316  15.193  10.927  13.173  14.459  13.422  13.829  12.889  11.084  11.155
   14.022  10.556  12.421  11.319  11.928  10.927   9.805  10.684  11.800  13.479
    7.671   9.251  11.390   9.341   6.377   9.873   6.696  11.148   8.228  10.421
    9.221  10.325   9.384   5.338   3.534   5.505   7.501  13.392   9.975   7.629
    6.209   6.378   6.755   2.599   3.022   6.037   4.406   3.376   7.003   8.444

    0.600  16.030
   16.953  13.589  17.070  19.515  18.852  19.616  15.137  14.909  13.003  12.878
   12.479  17.264  13.742  15.918  17.953  15.033  17.462  16.028  16.430  14.236
   17.284  12.912  16.026  17.398  16.768  14.696  15.169  16.512  16.334  18.066
   15.872  16.351  15.512  14.397  15.057  14.088  17.158  16.430  16.463  16.358
   14.394  17.386  14.042  10.999  16.010  17.290  13.705  11.129  13.103  11.248
   15.099  16.097  10.767  13.548  15.090  12.885  13.948  12.813  11.014  10.977
   14.220  10.935  11.731  10.404  12.270  10.896   9.400  11.453  12.162  13.814
    8.481   9.451  10.663   8.589   6.114   9.407   7.554  11.247   8.936   9.839
   10.186  11.310  10.483   5.671   3.850   5.605   6.677  13.506   9.993   6.022
    5.719   6.034   6.487   2.860   2.577   5.855   3.871   3.592   7.146   9.106

    0.650  16.522
   16.630  13.423  16.870  20.544  19.218  18.762  14.488  14.052  12.815  13.052
   11.985  17.766  13.779  16.162  18.459  14.207  18.221  15.751  16.050  14.411
   16.258  13.115  15.659  17.585  16.568  15.057  14.998  16.704  16.815  17.650
   15.753  17.524  16.093  14.426  14.573  14.251  17.304  16.264  16.586  15.636
   14.666  17.783  13.994  11.857  16.664  16.690  12.585  11.553  12.438  12.061
   15.409  15.822  12.193  12.344  14.728  11.613  14.061  13.924  11.113  10.620
   13.759  11.454  11.305  10.787  12.923  11.090   9.025  11.430  11.827  12.903
    8.386   9.110  10.370   7.487   6.046   9.897   7.327  12.224   9.935   9.736
    9.472  10.939  10.491   6.381   4.271   5.856   5.854  12.114   9.260   6.785
    5.847   5.235   6.370   2.556   2.610   6.159   4.800   3.411   7.482   8.207

    0.700  16.185
   17.623  13.362  17.009  19.686  19.067  18.467  14.503  13.945  12.946  12.972
   11.787  16.787  13.307  15.810  18.611  14.524  17.895  15.657  15.939  14.612
   17.316  12.921  15.481  16.885  16.496  15.541  15.439  16.187  15.836  18.655
   15.024  17.713  16.924  13.362  14.990  14.967  16.308  15.254  16.751  15.941
   14.197  17.826  13.362  11.702  16.355  16.576  12.381  10.644  12.376  12.130
   15.637  15.690  12.740  12.668  14.480  12.468  14.691  14.194  11.077  10.533
   13.330  11.459  11.458  10.634  12.380  10.685   9.623  10.321  11.751  13.266
    8.927   9.398  10.698   7.005   5.857  10.260   7.090  12.892   9.856   9.836
    9.588  11.270  10.285   6.116   4.669   5.480   6.644  12.262   8.742   7.764
    7.364   6.002   5.867   3.136   2.283   6.414   4.895   3.874   8.175   8.916

    0.750  16.381
   18.412  12.400  16.616  19.686  19.886  18.389  15.373  14.765  12.036  12.490
   11.375  16.430  12.853  16.203  18.439  14.032  17.044  15.537  15.300  14.370
   17.300  13.683  15.481  16.362  16.520  14.710  16.003  16.527  15.190  18.350
   13.893  17.146  16.916  13.339  14.970  15.717  15.938  15.377  16.180  16.510
   14.765  18.148  13.050  11.463  15.614  16.757  12.719  11.518  13.709  12.616
   15.748  14.831  12.696  13.490  14.093  12.480  14.026  14.276  11.859  10.435
   13.225  10.900  11.063  11.374  11.197  11.515   9.532  10.135  11.844  13.363
    8.267   9.686  10.248   7.013   6.504  10.013   8.113  13.273   9.686   9.537
   10.595  10.637  10.068   5.900   5.016   5.506   7.055  12.379   8.558   8.020
    7.795   5.903   5.240   2.441   2.243   6.110   5.937   3.155   9.365   7.777

    0.800  16.061
   19.078  12.320  16.315  19.278  19.820  17.817  15.254  15.592  12.354  12.518
   10.578  17.274  12.734  16.544  17.020  13.669  16.110  15.456  15.608  14.752
   17.541  13.590  15.208  16.775  16.885  14.575  16.040  15.351  15.522  17.908
   14.437  17.342  16.397  13.705  15.183  14.990  15.630  14.763  16.318  17.056
   14.364  19.019  12.847  11.767  15.163  16.663  12.721  11.694  13.410  11.438
   16.080  14.816  11.508  13.283  14.442  11.463  13.670  14.396  12.047  10.525
   14.670  11.009  11.881  11.952  10.813  10.774   9.931  11.050  11.462  13.630
    8.535   9.591   9.946   7.367   6.710   9.958   8.133  12.964   9.223  10.049
   11.587  10.563   9.584   5.976   5.012   5.114   7.107  12.287   9.422   8.802
    7.642   6.050   5.607   2.535   1.580   6.246   4.349   3.577   8.568   7.741

    0.850  14.599
   18.524  12.265  15.225  18.680  20.401  18.055  14.940  16.937  12.292  12.904
   10.974  16.971  13.053  16.987  17.373  13.301  16.291  14.818  15.940  14.071
   17.195  12.760  14.617  17.281  16.625  14.351  16.020  16.452  16.558  17.411
   14.789  17.271  16.169  15.264  15.684  14.768  15.799  14.061  17.316  17.199
   14.100  19.762  12.205  12.283  15.940  16.490  13.440  12.422  13.090  11.627
   16.283  14.753  10.777  13.402  15.887  11.289  14.438  14.278  11.568  10.869
   14.383  11.083  12.855  11.757  11.177  10.787  10.669  11.310  11.746  13.898
    9.019  10.354  10.728   7.610   6.248   9.485   7.776  13.220   9.421   9.388
   11.693  10.358   9.712   6.166   4.147   4.974   7.114  12.123   9.416   9.277
    7.639   6.128   5.839   2.622   1.038   5.868   4.197   3.610   8.299   7.205

    0.900  14.610
   19.391  11.859  14.501  18.551  19.868  18.573  14.757  17.065  13.125  13.929
   11.463  16.562  13.050  17.102  17.559  13.707  15.989  14.474  15.152  14.112
   17.189  12.418  12.997  17.890  17.051  13.557  16.535  16.946  16.724  18.353
   14.649  16.838  14.911  15.677  15.503  13.255  15.156  13.537  17.609  17.570
   14.833  19.423  12.883  13.248  15.609  16.358  12.729  12.907  12.632  12.319
   16.288  14.397  10.425  14.098  15.672  11.979  14.330  13.576  12.329  10.771
   13.864  10.611  12.474  10.909  11.126  11.052  10.742  11.586  11.952  12.914
    8.642  10.425  12.209   7.430   6.696  10.181   8.412  12.136   9.526   9.994
    9.980  10.495   8.494   6.170   3.904   5.009   6.510  11.553   9.482   9.819
    7.123   6.846   6.759   3.104   0.677   4.158   4.118   3.856   8.769   7.495

    0.950  14.206
   19.940  11.774  14.543  18.924  19.875  18.722  15.051  16.947  13.460  14.158
   11.977  16.189  13.273  16.258  16.645  12.881  16.278  15.278  15.199  14.664
   17.571  12.127  13.942  17.597  17.372  13.842  15.844  16.277  16.522  18.888
   14.904  16.211  15.311  14.198  15.155  12.708  14.091  13.708  17.478  17.154
   14.831  18.988  13.643  13.013  15.589  15.982  12.105  13.240  11.810  12.880
   16.816  14.659  10.270  13.548  15.920  12.117  14.666  13.645  11.422  10.828
   13.840   9.426  11.277  11.344  11.318  10.749  11.219  11.405  11.765  12.851
    8.784  10.440  12.948   7.450   6.141  10.903   8.426  12.096   9.997  10.605
    8.781  10.298   7.409   5.371   4.031   5.799   5.327  12.016   9.740   9.973
    7.032   6.309   7.362   2.668   0.642   4.660   4.189   3.769   8.231   7.556

    1.000  14.074
   20.135  12.412  14.197  19.408  19.334  19.296  15.335  16.781  12.867  14.137
   12.757  15.513  12.471  16.296  16.861  13.142  16.155  13.865  15.125  14.420
   17.121  11.731  14.123  17.692  16.727  13.678  15.001  15.743  16.198  18.160
   16.121  15.703  16.476  14.586  15.532  12.711  14.944  13.462  17.294  16.474
   15.290  19.698  14.031  14.110  15.494  17.124  12.991  13.127  11.706  12.945
   16.551  14.986  11.009  12.477  16.380  12.126  15.452  13.046  11.197  11.450
   13.982  10.794  12.135  10.692  11.733  10.233  11.277  12.004  11.835  13.034
    8.552  10.524  13.338   6.706   5.943  10.257   7.607  12.629   9.035  10.374
    8.230   9.648   7.809   5.962   3.708   6.217   6.048  11.868  10.533   9.976
    6.408   7.453   8.073   2.566   0.622   4.126   4.394   4.227   8.328   8.015

    1.050  13.766
   20.303  12.188  14.221  18.375  18.648  19.361  14.681  16.225  12.775  13.194
   12.662  15.283  12.638  17.675  16.993  14.032  15.988  13.866  14.428  15.138
   16.555  12.126  14.709  18.085  15.876  13.762  14.781  15.185  15.803  18.488
   15.367  15.100  16.659  14.567  15.671  12.453  15.165  14.116  16.532  16.254
   15.406  18.911  14.969  14.805  14.914  16.803  12.928  13.851  11.828  12.744
   16.838  14.777  10.252  12.017  14.729  12.251  15.273  12.806  11.967  11.320
   13.589  10.074  11.548  10.966  10.969   9.904  11.368  11.758  11.114  13.725
    9.196  10.080  13.332   7.900   6.947  10.049   7.994  12.939  10.197   9.831
    8.120   9.458   7.762   6.601   3.141   6.741   6.595  11.760  11.148   9.767
    6.871   6.750   7.352   2.415   0.144   3.618   5.246   4.871   8.773   8.085

    1.100  14.105
   19.145  11.825  14.646  18.003  18.732  20.695  14.322  16.684  13.194  12.755
   13.565  15.351  13.832  17.129  16.771  13.466  15.435  14.106  13.695  15.392
   16.917  11.658  14.135  18.478  16.306  13.232  13.787  15.094  16.477  18.525
   15.159  14.561  17.043  14.668  14.216  12.718  15.377  15.131  15.906  16.067
   15.749  18.882  15.071  13.758  14.594  16.186  12.104  13.713  11.133  13.202
   17.323  14.618  10.809  12.287  14.461  12.192  14.117  13.129  11.999  11.582
   13.285  10.235  12.539  12.130  11.360   9.879  10.807  12.347  11.563  14.013
    8.265   9.900  11.954   8.274   5.869   9.891   7.945  12.773  10.882   9.314
    8.461   9.340   7.686   6.091   1.777   6.003   6.502  11.834  11.786   9.326
    6.458   6.892   7.613   2.533   0.919   2.433   5.210   4.192   8.777   7.731

    1.150  14.437
   19.207  12.145  13.576  17.862  18.846  20.988  14.545  17.003  13.831  13.581
   13.171  15.242  14.433  15.989  16.857  14.202  15.682  13.630  14.471  15.667
   16.286  11.946  15.175  19.672  16.870  13.393  13.784  15.261  16.391  18.688
   15.160  14.886  16.569  14.727  14.074  12.882  15.886  15.350  16.138  17.091
   15.656  18.545  14.463  15.158  15.022  15.746  11.559  13.679  11.130  13.909
   17.409  14.836  10.999  12.296  14.743  12.927  15.054  13.059  11.752  11.519
   12.739  11.366  13.432  12.000  10.256  10.048  10.683  12.164  11.394  14.350
    8.525   9.896  11.093   8.698   5.384   9.987   7.421  12.826  10.342   9.367
    8.840   8.265   7.824   6.422   2.669   6.361   5.877  11.165  11.656   8.920
    5.777   7.111   7.861   2.279   0.185   2.478   5.422   5.106   8.853   7.492

    1.200  13.258
   18.938  11.650  12.486  18.073  19.165  21.803  13.218  18.182  13.939  13.978
   13.152  15.411  14.169  16.095  17.090  14.668  16.397  14.190  15.519  14.897
   16.458  11.923  16.856  19.629  17.174  13.908  13.107  15.274  16.856  19.746
   15.273  14.655  16.109  15.105  13.781  13.041  16.441  15.398  15.256  17.528
   15.694  18.447  14.454  14.918  14.844  15.702  11.939  13.791  11.881  13.712
   17.979  14.976  10.247  12.466  14.419  13.116  15.031  12.711  12.189  10.871
   13.055  10.922  12.958  10.570  10.325  11.064  11.075  12.434  10.829  14.339
    7.876   9.485  11.108   8.827   4.732   9.680   7.735  13.315  10.203   9.753
    9.385   8.782   8.383   6.237   3.018   6.461   5.904  11.278  10.963   8.470
    5.721   7.163   7.409   1.697   0.153   1.727   6.057   4.922   9.602   6.788

    1.250  13.747
   18.944  12.901  13.185  17.627  19.028  22.597  13.245  18.409  14.287  13.941
   12.777  16.272  14.386  15.760  17.282  14.613  16.745  14.641  14.616  13.874
   16.766  11.774  15.969  19.557  16.800  14.406  13.253  15.329  17.189  20.046
   14.295  14.603  15.766  15.949  13.662  13.119  16.991  15.020  14.707  17.362
   15.694  18.446  14.151  14.320  15.482  16.184  12.342  12.385  12.758  14.381
   17.506  16.202   9.410  12.169  14.250  13.235  15.193  12.425  12.524  10.471
   12.576  11.345  12.944  11.614  10.264  11.218  11.017  11.979  11.202  14.474
    8.599   8.963  11.548   8.285   4.970  10.046   8.124  13.536   9.555  10.389
    9.693   8.656   8.450   6.063   2.947   6.341   6.424  10.577  10.214   8.431
    6.159   6.881   7.885   2.153   0.890   2.050   5.469   5.641  10.349   6.766

    1.300  14.150
   18.686  13.851  13.067  16.956  19.289  21.875  13.094  18.495  14.753  13.819
   12.611  16.337  15.251  16.267  16.965  13.936  16.933  15.564  14.266  14.298
   16.279  11.432  15.985  20.492  17.510  14.344  13.226  15.761  16.977  19.581
   14.535  14.438  15.228  15.802  13.291  13.053  17.325  14.230  14.960  16.739
   15.822  18.580  14.194  13.681  16.067  16.229  11.661  12.560  12.026  15.337
   16.338  16.103   9.762  11.422  13.800  11.866  16.247  13.112  12.113  11.258
   12.469  11.470  12.908  11.427  10.151  11.162  10.778  13.215  11.094  15.619
    8.961   8.718  11.535   9.154   5.319   9.150   7.988  13.974  10.045  10.854
    9.389   8.505   8.903   6.596   3.408   6.082   5.930  10.161   9.786   8.093
    5.411   6.102   7.484   2.332   1.131   2.770   5.161   4.260   9.249   6.415

    1.350  15.599
   19.354  13.010  12.743  17.413  19.866  21.954  13.122  18.320  14.866  14.280
   14.146  16.527  14.706  16.081  18.062  14.732  17.080  14.853  13.319  14.511
   16.655  11.500  16.745  20.240  16.588  14.447  13.221  15.963  17.630  19.164
   14.935  14.108  15.717  15.375  13.470  12.614  17.392  13.834  13.908  16.260
   15.660  17.800  13.935  14.060  15.992  15.755  11.427  12.945  11.694  15.650
   17.247  16.727   9.341  11.791  14.719  11.654  16.338  13.739  11.734  11.523
   13.071  10.921  13.029  11.456  10.639  12.062  10.665  13.400  10.730  14.827
    9.629   9.513  11.346   8.890   6.190   8.809   8.791  14.336  10.435  10.413
   10.168   8.265   9.190   6.363   4.445   5.994   5.605  10.478  10.180   8.732
    4.920   6.652   6.689   2.735   1.043   2.903   4.013   3.420   9.062   7.539

    1.400  15.259
   18.519  13.669  13.810  19.037  19.957  22.326  12.786  18.273  15.099  14.240
   14.284  15.467  15.117  15.496  17.855  14.861  17.125  15.197  13.139  14.739
   16.580  11.147  17.248  20.595  16.581  14.634  12.435  15.754  17.308  19.293
   13.819  14.057  15.539  15.371  14.169  12.547  16.269  13.859  14.485  15.843
   16.072  17.859  14.788  14.524  16.560  15.942  12.058  13.715  10.847  14.983
   16.656  16.097   9.499  12.629  15.505  11.524  17.045  14.336  11.151  11.492
   13.493   9.858  12.822  10.876  10.902  11.856  10.661  13.009  10.379  14.662
    9.859   9.575  11.241   8.702   6.652   8.082   8.787  13.825  11.335  10.855
    9.611   9.400   9.983   6.730   3.272   5.921   5.839   9.875  10.275   8.816
    5.724   5.925   5.789   2.958   1.419   3.169   3.358   3.968   8.367   7.691

    1.450  15.437
   17.434  13.255  13.565  18.687  19.957  21.661  12.969  19.297  15.229  15.655
   13.759  15.432  15.238  15.356  17.383  14.385  16.451  14.965  12.774  14.122
   16.010  11.580  17.297  21.060  17.446  15.486  12.438  15.914  18.030  20.669
   12.980  14.246  16.011  14.764  15.020  12.453  16.446  14.402  15.677  15.303
   16.042  17.887  14.484  14.322  17.338  15.585  11.877  14.163  11.806  15.298
   18.240  15.647   9.940  12.426  15.000  11.248  16.644  14.512  10.823  11.088
   13.733   9.577  12.760  10.731  10.618  12.051  11.713  12.863  11.548  14.279
   10.451   9.333  11.152   8.134   6.385   8.131   9.217  14.567  11.907  10.595
   10.100   9.893  10.470   6.609   2.971   7.087   6.234  10.630  10.340   9.123
    6.022   6.709   6.412   3.020   1.040   1.786   3.270   4.858   8.265   7.643

    1.500  15.292
   18.237  13.115  12.879  18.429  19.835  20.467  13.488  18.784  15.401  15.160
   14.477  15.320  16.125  15.839  18.342  14.664  16.238  16.940  13.328  13.792
   16.285  12.099  16.778  21.979  17.550  14.266  11.830  16.549  17.918  20.266
   12.375  15.027  15.839  15.616  15.322  13.377  16.837  14.229  15.797  15.608
   16.104  17.523  13.814  15.043  16.789  17.018  11.926  14.658  12.398  14.586
   17.694  15.017   9.308  11.911  14.787  11.197  16.717  14.719  11.721  11.147
   13.633  10.379  14.129  11.664  10.155  11.609  11.007  12.766  11.697  14.516
    9.792   9.792  11.410   8.570   6.270   8.647   9.142  13.917  11.943  11.042
    9.846  10.116   9.183   7.629   2.699   7.375   6.602  11.179  10.645   9.226
    5.653   7.184   6.869   4.017   0.923   1.276   3.040   5.360   8.113   7.930

    1.550  14.767
   17.524  13.303  13.004  17.636  19.800  20.513  13.581  19.411  15.543  14.174
   14.015  15.008  17.708  15.694  18.751  16.043  16.790  17.125  14.209  13.923
   16.226  12.685  17.468  21.011  17.351  14.043  11.822  16.098  17.388  20.376
   12.375  15.021  15.167  14.501  14.916  12.892  16.170  14.890  14.793  16.488
   16.067  17.038  14.276  15.276  17.527  17.024  12.367  14.592  13.295  14.062
   17.118  15.723   9.577  11.937  14.765  12.070  16.478  14.786  12.362  11.201
   13.260  11.413  13.442  11.668  10.147  11.350  11.691  11.807  11.395  14.089
   10.160   9.171  11.954   8.742   5.929   9.652  10.039  12.990  11.545  11.190
   10.497  10.102   9.520   7.781   3.007   6.329   6.617   9.906  11.305   9.025
    5.947   7.677   7.466   3.975   1.013   2.696   3.651   4.646   8.140   7.521

    1.600  14.962
   18.205  13.352  13.401  17.480  19.863  20.015  13.530  20.209  15.552  14.256
   14.465  15.426  18.290  15.539  18.368  14.959  15.640  16.158  14.715  13.553
   16.149  13.732  17.432  20.810  17.234  14.276  11.723  15.566  16.685  19.314
   11.880  14.564  15.118  13.824  13.890  13.603  15.976  15.615  15.663  16.903
   15.814  17.356  14.974  15.569  17.943  16.050  12.068  14.360  12.994  13.540
   17.142  16.633   9.967  11.987  14.683  11.837  17.230  15.330  12.945  12.002
   14.009  11.891  12.970  10.803  11.546  12.445  12.480  11.366  11.535  14.435
    9.200   9.335  12.587   8.961   6.036   9.101  11.118  13.701  13.056  11.137
   10.503  10.944   9.154   7.475   4.070   5.701   6.905  10.519  11.613   9.641
    6.658   8.256   8.866   4.081   1.488   2.482   4.140   4.987   8.462   8.340

    1.650  15.482
   17.669  12.905  12.450  16.979  19.884  20.105  13.893  19.974  15.463  13.915
   14.955  15.646  18.685  14.515  18.265  14.849  15.372  16.555  14.582  14.337
   16.266  13.076  17.971  21.203  18.491  13.504  12.648  15.057  16.095  19.414
   12.624  14.976  15.141  14.215  14.493  14.877  15.883  15.211  14.885  18.180
   15.164  17.740  15.037  15.406  17.648  16.108  10.785  14.318  12.313  11.807
   17.464  16.088  10.619  12.743  14.285  11.777  17.489  15.185  13.127  12.897
   14.168  11.528  12.979  11.259  10.891  13.510  11.769  11.782  12.121  14.444
    9.596   9.135  11.846   8.398   5.563   8.270  10.052  12.899  13.194  11.849
   10.157  10.266   8.214   7.045   4.462   5.080   6.686  10.563  12.432   9.552
    6.749   7.877   8.339   3.806   1.479   2.626   4.026   5.131   8.444   8.811

    1.700  15.846
   17.209  12.849  12.368  17.245  18.797  20.593  14.199  20.391  15.056  13.704
   14.721  15.970  17.995  14.283  18.179  14.911  16.142  15.988  15.374  14.331
   15.933  12.608  17.390  20.649  18.365  13.969  12.591  14.410  16.352  18.339
   12.107  15.850  14.828  13.726  14.180  14.264  15.668  14.501  14.266  17.865
   15.256  17.409  13.879  14.447  16.632  16.292  11.682  14.900  12.093  12.519
   17.402  14.912   9.709  12.740  14.736  11.573  16.919  14.327  13.386  12.842
   13.761  11.360  13.047  11.273  11.293  13.824  11.688  11.854  11.616  13.240
    9.742   9.294  11.634   8.357   4.962   8.847   9.738  12.849  12.793  12.100
   10.593  10.550   8.269   6.194   4.073   5.534   7.359   9.377  12.474   9.644
    6.437   8.233   7.237   2.287   1.726   3.563   3.910   4.604   8.521   8.689

    1.750  15.272
   17.332  12.941  12.562  17.687  18.470  20.639  15.283  19.856  15.211  13.489