
This full-field turbulence file was generated by TurbSim (v1.40, 12-Sep-2008) on 27-May-2021 at 14:31:53.

 | u-comp |  Y  x  Z  | Grid Resolution (Y x Z) | Time-step | Hub Elev | Mean U |
            10    10     15.556     15.556          0.050      89.60     19.00

 Z Coordinates (m):
  -70.000 -54.444 -38.889 -23.333  -7.778   7.778  23.333  38.889  54.444  70.000

 Y Coordinates (m):
  -70.000 -54.444 -38.889 -23.333  -7.778   7.778  23.333  38.889  54.444  70.000

    0.000  16.477
   21.054  15.525  16.613  17.719  15.118  15.925  18.530  17.265  17.860  20.648
   16.842  16.970  17.058  14.326  19.946  16.184  20.353  17.231  15.467  18.136
   18.845  16.638  16.861  18.015  17.274  17.448  17.815  17.292  18.307  18.298
   21.343  16.885  15.249  13.948  13.977  16.531  17.245  17.421  19.023  20.496
   17.020  12.508  12.842  15.134  13.849  16.929  16.329  19.779  19.873  17.658
   15.588  13.939  10.042  14.227   9.892  16.235  17.256  16.399  16.765  19.906
   12.865  12.648  14.522  16.310  12.741  16.023  15.682  16.246  18.903  16.868
   11.524  11.215  14.682  13.845  15.818  14.357  15.207  14.482  16.458  16.755
   10.681  13.670  13.853  13.482  10.739  11.883  12.605  16.093  15.655  14.074
    9.792   8.301  12.596  11.963  12.684  11.112   9.341  13.107  14.011  12.345

    0.050  16.860
   20.024  15.190  15.582  18.365  16.216  15.930  18.807  17.112  17.472  19.658
   16.573  16.112  16.877  14.808  19.798  16.088  21.278  17.338  15.646  18.143
   17.605  17.363  17.615  17.354  16.344  17.472  18.164  17.131  19.467  18.246
   20.782  17.313  15.895  14.180  14.517  16.500  18.312  18.212  18.646  19.922
   16.444  13.199  12.862  15.199  14.276  17.202  16.271  20.135  19.918  17.659
   16.347  13.898  10.206  13.902  10.111  16.193  18.966  17.497  16.583  20.911
   13.120  12.936  14.491  14.840  12.550  16.678  16.327  16.239  19.532  16.986
   11.075  11.518  14.204  14.355  16.645  15.078  15.886  14.677  16.907  17.344
   11.007  13.587  13.248  13.189  10.246  11.529  12.003  16.026  15.949  13.511
   10.133   8.910  12.205  11.924  12.384  10.141   9.112  12.700  13.665  12.762

    0.100  15.625
   20.635  15.377  15.524  18.742  15.655  16.301  17.819  16.689  17.748  20.107
   17.071  16.167  17.916  14.689  19.520  15.920  20.253  17.612  15.439  18.437
   17.271  17.869  16.979  17.348  16.204  16.534  17.779  17.085  18.596  18.464
   20.923  18.548  15.859  13.760  15.153  16.288  18.828  18.167  18.993  20.212
   16.353  13.782  13.121  15.399  13.709  17.484  16.476  19.863  21.032  17.466
   16.667  14.763  10.258  13.140  10.025  15.710  17.905  17.902  15.670  20.143
   13.096  12.366  13.321  16.302  11.913  15.885  15.210  16.049  18.679  16.321
   10.693  13.360  13.932  13.315  16.442  15.755  15.947  15.191  17.025  17.175
   10.386  14.030  13.833  13.258  11.036  10.961  11.811  16.340  15.541  13.894
    9.891   9.073  11.500  10.879  11.654   9.463   9.633  12.647  14.258  12.921

    0.150  15.680
   20.948  15.294  15.494  19.399  15.346  15.286  17.921  17.125  18.072  20.824
   17.246  16.008  17.857  13.758  19.491  16.906  19.718  17.260  16.036  18.934
   17.372  17.517  16.263  18.305  16.878  16.873  17.945  16.350  18.863  18.844
   21.222  17.699  15.932  14.961  14.018  15.729  19.278  17.882  19.525  20.463
   16.372  14.783  14.080  16.572  13.531  17.861  17.466  20.262  21.159  18.236
   16.137  14.717  11.123  12.700   9.144  16.150  17.772  17.935  16.389  19.495
   12.943  12.669  13.253  16.493  12.498  14.929  14.968  15.462  18.459  16.605
   10.959  12.372  13.511  13.660  15.507  16.355  16.483  15.502  16.378  17.252
   11.499  12.581  13.203  12.073  11.724  11.165  11.541  16.606  15.246  13.300
   10.121   9.720  11.296  10.569  10.827  10.154   9.954  12.997  14.213  12.519

    0.200  17.172
   20.704  15.559  15.988  19.865  15.258  15.175  16.645  16.602  17.413  20.540
   17.771  15.545  16.405  13.512  19.699  17.567  18.739  16.963  15.955  18.975
   17.200  17.702  16.888  18.379  16.660  17.653  16.696  17.250  19.013  18.143
   20.819  16.816  15.890  15.398  14.020  16.085  18.552  17.652  20.160  21.071
   16.409  15.550  13.386  16.185  14.651  18.760  16.895  20.385  22.201  18.071
   15.898  15.180  11.272  12.763   9.290  17.140  17.761  18.177  16.275  19.705
   13.674  13.105  13.735  16.085  12.178  16.154  16.046  15.989  18.741  16.796
   10.503  12.321  13.660  12.642  16.537  16.229  15.450  14.569  16.221  17.200
   11.619  12.958  13.026  12.238  11.330  10.856  12.001  15.852  14.906  13.405
    9.326   9.460  11.623   9.990  10.633   9.632   9.507  13.217  13.559  12.206

    0.250  18.784
   20.889  15.240  15.725  20.506  17.063  14.456  16.557  16.064  17.685  20.920
   17.733  15.530  16.210  12.407  19.822  18.152  18.619  17.070  16.109  18.552
   15.993  16.781  16.261  18.440  16.598  17.807  16.952  16.873  18.884  19.847
   20.438  15.761  16.450  15.976  14.971  16.932  18.191  17.164  21.518  20.799
   15.677  14.333  14.259  15.956  14.533  19.065  17.250  18.995  22.260  17.949
   15.488  16.138  11.842  12.306   9.343  17.236  18.357  17.936  16.815  20.312
   13.988  11.939  14.554  16.277  12.225  15.571  15.578  16.574  17.721  16.866
   11.177  13.436  13.262  13.575  15.634  16.523  15.660  13.676  15.946  16.227
   10.808  12.075  13.619  12.358  12.121  11.359  12.250  15.123  16.078  13.207
    9.168   9.982  12.202   9.926  10.299  10.174  10.366  13.479  13.183  13.339

    0.300  19.030
   20.766  15.263  15.262  19.975  17.164  14.574  17.181  16.355  17.890  20.736
   17.618  14.948  16.727  12.449  19.344  17.582  18.570  17.455  16.675  19.378
   16.541  17.139  15.561  18.257  16.477  17.696  17.773  16.746  18.698  20.412
   20.894  15.385  16.825  15.948  15.339  16.704  18.807  16.401  21.715  20.689
   15.750  14.064  14.244  15.208  14.475  17.827  16.883  18.996  21.461  17.822
   15.515  15.301  11.868  12.778   9.708  18.078  18.159  18.743  16.621  20.398
   14.216  12.362  14.640  15.939  12.930  14.224  15.188  16.616  17.378  17.162
   11.275  13.727  13.807  13.932  14.649  15.271  15.366  13.509  15.427  16.191
   10.920  11.212  13.964  12.902  12.059  10.404  12.211  15.170  17.024  12.827
    9.324   9.838  12.548   9.706  10.636   9.988  10.211  12.964  12.989  13.347

    0.350  18.802
   19.739  15.789  15.519  19.786  17.477  15.223  16.570  15.801  18.494  20.725
   17.564  15.038  17.490  11.368  19.840  18.268  18.221  18.193  17.207  19.810
   17.149  16.266  15.327  19.108  17.719  17.438  17.899  16.753  17.576  20.213
   21.063  15.811  16.729  16.366  15.052  17.097  19.265  17.148  21.685  20.580
   15.953  13.228  14.094  14.826  14.607  16.989  16.101  19.181  21.261  18.133
   15.968  15.039  12.124  12.715  10.081  17.641  17.829  18.505  16.500  20.814
   13.565  12.037  14.926  15.738  12.738  14.359  15.391  16.152  17.677  16.274
   10.494  13.201  13.741  13.494  13.757  15.919  15.235  13.714  15.260  17.161
    9.829  11.202  13.782  13.248  12.819  10.474  12.481  14.764  17.649  12.883
    8.774  10.052  12.420   9.509  10.874  10.447  11.165  13.058  12.873  13.553

    0.400  18.756
   19.217  15.372  15.709  20.128  17.642  16.308  16.349  15.201  19.008  21.642
   16.292  15.719  17.924  11.449  20.141  18.417  17.999  18.118  17.342  19.941
   17.409  16.062  15.262  18.802  17.829  17.614  18.416  17.010  17.434  20.190
   20.973  16.410  17.797  16.409  15.140  16.421  18.100  17.656  21.656  20.070
   15.866  13.599  14.695  14.986  14.453  17.156  16.670  19.612  21.196  17.477
   16.185  13.955  13.200  12.366  10.921  17.523  17.457  17.613  16.238  20.740
   13.281  11.675  15.349  16.170  12.306  13.581  15.748  15.424  17.819  17.232
    9.944  12.890  12.626  12.673  14.012  16.744  14.560  13.914  15.534  17.061
    9.391  11.090  13.490  12.516  12.708  10.956  12.290  14.965  16.367  13.217
    9.217   8.831  11.959   9.919  11.325   8.935  11.127  12.789  12.380  13.500

    0.450  17.879
   19.306  15.464  15.984  20.708  17.737  17.810  15.347  15.692  19.058  21.486
   17.824  15.303  17.467  12.903  19.349  18.123  18.189  18.844  17.892  19.469
   17.143  16.055  15.211  19.157  17.945  17.793  17.972  17.425  17.274  19.895
   20.702  16.720  16.977  15.080  15.170  16.978  16.912  16.723  22.692  20.016
   15.867  14.031  14.833  15.047  13.948  18.048  16.311  20.855  20.821  16.198
   16.348  14.628  13.827  12.133  10.168  15.887  17.748  17.586  16.214  19.862
   14.118  12.614  14.684  16.407  11.697  14.047  16.054  15.218  18.894  16.425
   10.607  12.597  12.691  11.833  13.199  16.224  14.798  14.503  14.786  17.261
    9.398  10.616  12.800  11.900  13.107   9.859  12.694  15.152  16.009  13.612
    9.221   8.654  11.012   9.931  11.147   8.219  10.105  13.950  12.516  13.783

    0.500  18.073
   19.474  14.932  16.151  21.084  16.638  18.087  15.151  15.810  18.585  21.092
   18.931  14.924  17.059  13.416  19.155  18.201  18.837  19.187  17.377  18.977
   17.521  16.365  14.763  18.768  17.089  17.411  17.047  17.484  16.686  19.890
   20.030  17.086  17.003  15.845  15.210  17.221  18.310  16.471  22.443  19.606
   16.901  13.640  14.113  15.651  13.573  17.401  15.972  20.647  20.839  15.221
   16.483  14.815  13.362  13.727  10.360  16.205  18.629  17.731  16.565  19.979
   14.907  12.373  14.428  16.074  10.793  14.420  15.531  16.534  18.702  16.515
   10.947  12.172  13.008  12.366  13.718  16.982  15.696  13.669  14.742  15.737
   10.232  10.673  13.719  12.035  12.868  10.652  12.279  15.674  16.088  14.138
    8.590   8.959  11.452   9.597  11.661   8.367  10.831  14.145  12.487  13.471

    0.550  17.886
   19.151  15.531  16.163  22.393  16.399  18.139  15.779  16.082  17.742  21.188
   18.166  14.595  17.373  14.257  19.475  17.649  19.908  18.771  17.905  18.079
   17.893  16.634  15.253  18.324  17.262  16.841  17.443  18.240  17.470  19.787
   20.360  16.679  17.400  16.874  14.849  17.158  17.951  16.208  21.866  20.426
   17.004  13.003  13.684  14.076  13.710  18.186  17.101  18.965  20.825  15.871
   15.189  15.808  13.843  14.774  10.320  15.313  18.999  18.669  16.808  20.289
   15.310  12.620  15.471  16.748  10.203  13.841  15.983  15.745  19.153  16.961
   10.724  12.436  12.646  11.322  13.358  16.332  16.597  14.397  15.232  16.492
   10.140  10.615  13.595  12.269  12.284  10.860  13.249  15.936  17.021  13.328
    9.343   8.954  11.845  10.063  11.109   8.125  11.028  15.427  13.249  12.844

    0.600  17.860
   19.170  15.196  15.799  20.814  16.907  17.958  15.180  15.923  18.693  21.793
   18.091  14.166  17.311  14.209  19.670  17.573  20.208  19.344  17.933  17.855
   18.280  15.571  15.461  17.860  17.548  16.746  18.256  17.067  17.342  19.794
   20.142  16.505  16.686  18.031  14.639  17.460  18.514  16.838  22.529  20.118
   16.727  14.498  13.425  14.344  14.746  18.096  17.346  18.084  20.924  16.414
   14.941  15.137  13.716  14.554  10.070  16.085  19.148  18.652  16.351  20.336
   16.055  12.363  15.157  16.499  10.818  13.220  16.035  16.251  18.676  16.637
   11.641  11.778  12.503  11.619  12.677  16.089  16.250  14.430  13.826  16.327
    9.752  10.299  13.715  11.516  12.542  10.707  13.125  15.713  16.974  12.744
    8.785   8.285  11.185  10.048  10.877   8.636  11.872  15.989  13.158  12.699

    0.650  17.418
   19.245  15.830  16.823  20.298  16.088  17.393  16.059  16.843  19.349  21.416
   18.080  15.002  17.532  14.799  20.182  17.849  18.926  20.191  17.630  18.046
   17.775  14.580  15.155  17.694  17.736  16.911  18.254  17.186  17.222  18.907
   20.359  16.399  16.127  17.612  14.142  17.829  18.406  17.145  23.080  20.072
   16.725  15.314  12.756  14.794  14.418  18.162  16.977  18.121  21.103  15.468
   14.493  14.646  12.817  15.092  11.071  16.241  20.108  18.951  15.893  20.087
   16.233  13.056  14.930  16.158  11.201  12.867  17.305  15.556  18.164  16.762
   11.790  11.469  13.246  12.874  12.825  15.587  16.685  13.368  13.688  16.221
   10.551  10.974  14.959  12.185  12.685  11.247  12.396  14.266  16.267  14.588
    9.100   8.227  11.048  10.453  10.673   8.557  11.714  16.463  12.738  13.183

    0.700  17.948
   19.419  16.350  16.066  20.117  15.724  18.170  16.314  16.869  19.382  21.872
   17.530  14.381  18.985  15.032  20.261  17.907  19.618  20.709  17.722  18.073
   17.397  14.660  14.873  17.464  17.225  17.002  18.851  17.831  17.662  18.833
   19.807  16.241  15.526  17.156  14.349  17.397  17.965  17.460  22.939  20.418
   16.526  15.489  13.286  15.324  14.859  18.266  17.087  17.432  19.775  15.922
   14.250  15.038  13.928  14.521  11.071  16.589  20.920  19.272  16.227  20.740
   15.214  12.611  14.922  16.425  10.259  13.010  17.960  16.117  18.447  16.676
   11.785  10.921  13.303  13.953  12.425  15.628  16.063  14.110  14.222  15.928
    9.931  11.470  15.564  12.338  13.205  11.150  13.476  14.245  16.407  14.822
   10.718   8.970  10.320  10.388  10.612   8.119  11.484  16.395  11.623  13.198

    0.750  17.738
   18.953  17.052  16.024  19.575  16.247  17.371  16.324  15.938  18.565  22.348
   16.675  14.319  19.588  15.639  20.086  18.458  19.582  20.901  17.457  17.801
   17.557  15.300  14.174  17.729  16.795  16.600  17.659  17.522  17.607  19.392
   20.812  15.047  14.358  17.272  14.701  16.788  17.841  18.318  22.339  21.025
   16.683  14.785  13.529  15.240  15.262  18.569  17.299  18.070  19.706  16.357
   14.541  14.977  14.718  14.880  11.429  16.634  20.975  18.357  16.264  21.658
   15.444  12.075  15.697  16.099  10.995  13.162  17.752  15.400  18.714  16.314
   12.129  10.143  13.846  13.411  12.196  16.152  16.436  14.802  14.362  16.407
    9.876  12.147  16.039  12.177  13.456  11.362  13.618  13.651  17.239  14.742
   10.874   8.995  10.684  10.269  10.359   8.137  10.553  17.186  10.940  14.092

    0.800  17.468
   19.530  17.046  16.307  19.465  15.511  17.655  16.900  16.079  18.180  21.887
   16.381  14.344  19.419  15.756  19.810  19.704  19.875  20.688  17.886  17.389
   17.500  14.878  14.698  17.462  16.448  17.336  17.675  17.572  16.308  19.889
   21.667  15.258  15.039  16.436  14.461  17.594  17.424  17.546  22.160  21.692
   16.421  15.228  12.850  15.104  15.047  18.978  17.601  19.196  19.724  17.180
   15.273  15.159  13.847  14.678  11.826  17.104  20.936  18.029  16.149  21.870
   14.761  11.799  15.429  15.583  10.842  13.686  16.861  15.013  18.502  16.730
   12.186   9.448  13.281  13.201  12.700  16.129  16.726  15.084  14.697  16.534
   11.179  12.141  15.824  12.223  12.950  11.340  13.613  13.165  16.968  14.029
   10.875   9.129  11.240  10.896  10.451   7.879  11.899  16.758  12.036  13.788

    0.850  16.599
   19.262  16.444  16.572  18.371  15.789  16.957  17.575  16.062  16.831  21.969
   16.403  15.031  19.009  15.805  19.866  19.049  19.931  19.928  17.953  18.429
   17.498  15.174  15.146  17.300  16.471  17.137  18.520  16.990  16.850  20.830
   20.954  15.498  14.586  17.242  13.969  17.133  17.992  18.727  21.596  21.513
   16.183  14.732  13.257  15.208  15.082  19.355  17.792  18.838  20.768  16.889
   15.723  15.397  14.667  14.895  11.471  16.784  20.466  17.755  16.507  21.886
   13.988  11.459  15.260  16.490  10.149  13.198  16.849  15.916  17.964  16.283
   12.012   8.907  12.288  13.014  12.669  16.048  16.777  14.673  15.826  17.254
   13.328  12.555  15.934  12.485  11.991  11.970  13.276  12.886  16.600  13.314
   10.664   9.708  11.901  11.138  11.015   7.922  12.306  16.789  11.467  13.611

    0.900  16.009
   18.280  16.013  16.457  18.373  15.941  16.634  17.343  16.685  16.811  21.058
   16.335  15.003  18.965  15.749  18.977  18.345  19.190  20.282  17.645  18.607
   18.263  15.359  15.129  19.038  15.804  16.974  18.180  16.658  17.830  21.254
   20.988  15.110  14.918  17.555  14.732  18.309  18.630  19.167  21.878  21.981
   16.600  13.417  13.978  14.259  15.257  19.203  18.446  18.635  19.978  17.131
   15.811  15.136  14.403  15.739  12.354  15.739  21.051  17.104  16.456  21.611
   14.709  12.111  16.758  16.578  10.040  12.637  16.885  16.351  17.336  16.585
   12.646   9.392  13.400  13.122  12.944  16.674  17.015  14.877  16.000  16.932
   13.294  12.843  14.338  12.034  12.212  12.582  13.669  13.333  16.379  13.203
   10.301   9.861  12.382  11.013  11.628   9.714  12.359  16.393  11.728  12.990

    0.950  16.112
   18.716  16.837  16.036  18.440  16.719  16.371  17.766  16.363  16.807  20.931
   18.257  14.817  19.473  15.761  18.832  18.403  19.628  19.554  16.380  18.300
   18.018  16.184  15.537  19.495  15.899  16.279  18.293  17.415  18.418  21.438
   20.857  16.064  14.723  18.662  16.578  18.048  17.601  18.611  21.790  21.097
   16.703  13.592  13.802  14.234  16.656  18.925  18.271  18.138  19.828  16.768
   15.736  14.329  13.921  16.535  13.095  15.466  21.750  16.616  17.261  20.963
   14.653  11.241  16.759  16.344  10.242  11.478  16.748  16.732  16.968  17.148
   12.490   9.682  14.259  12.738  12.800  15.759  16.371  15.421  16.448  16.573
   12.325  13.063  13.918  12.125  11.943  12.486  15.009  13.009  15.458  13.784
   10.023   9.906  12.414  10.881  11.977   9.585  12.374  16.365  11.773  12.956

    1.000  16.439
   18.366  16.497  16.830  18.539  17.356  15.846  17.613  16.160  16.916  21.600
   17.811  15.463  18.794  14.890  19.238  19.019  20.600  19.425  17.618  18.379
   17.986  16.075  14.549  19.397  16.007  15.581  17.716  17.735  18.537  21.776
   21.057  17.337  15.018  18.244  16.917  18.733  17.608  18.163  22.083  21.613
   17.173  14.342  14.787  14.817  17.242  18.682  17.668  17.361  20.588  15.872
   15.775  14.164  13.837  15.164  12.159  14.519  21.021  16.885  17.790  20.082
   15.151  11.524  17.474  15.901  10.144  11.493  16.352  16.472  17.781  16.977
   13.055  10.154  14.161  13.742  13.750  15.240  16.812  14.634  16.127  16.765
   11.949  12.541  14.393  12.923  11.896  11.591  14.352  13.610  14.997  14.527
    9.592  10.610  11.664  11.335  12.180  10.307  11.852  15.351  11.355  13.039

    1.050  17.577
   18.048  17.337  17.237  18.226  16.503  15.092  18.066  15.249  17.765  21.999
   17.815  15.193  19.173  13.979  21.084  19.013  20.226  19.049  18.063  18.900
   17.935  15.643  15.719  20.110  16.262  15.548  18.013  17.336  19.011  22.285
   21.151  17.318  15.419  18.076  16.912  18.604  17.292  17.118  22.879  21.554
   17.655  14.019  14.291  14.898  17.667  18.070  17.293  17.059  19.871  15.799
   15.736  14.037  14.206  15.091  12.399  14.290  20.663  16.108  17.884  20.000
   14.715  11.372  17.954  15.723   9.989  12.281  16.771  16.342  17.947  17.833
   13.316  10.131  12.641  14.314  13.513  15.302  15.998  14.940  15.711  15.781
   12.169  13.056  14.246  12.073  12.554  11.236  14.039  13.792  15.330  14.924
   10.019   9.619  11.053  11.490  12.881  11.276  11.418  15.974  11.642  13.366

    1.100  17.845
   17.422  18.169  17.421  19.326  16.309  15.458  18.817  16.247  18.191  21.995
   18.031  14.647  18.900  14.290  21.458  18.568  19.558  18.762  17.100  19.965
   18.552  15.316  15.599  19.983  15.664  15.512  17.113  17.229  19.299  21.924
   20.699  17.919  14.837  17.698  17.733  17.248  17.455  17.614  21.861  22.369
   17.665  13.407  13.240  15.187  16.457  18.204  17.372  17.234  18.644  16.047
   15.920  14.059  13.844  14.492  13.092  13.737  20.325  15.572  17.989  19.814
   14.420  11.830  17.607  13.947  10.189  12.453  16.949  16.384  18.000  18.753
   13.439  10.748  12.373  13.952  14.902  14.901  15.930  14.869  16.587  14.731
   13.049  12.648  14.531  12.395  14.060  11.354  14.421  14.543  16.310  14.817
    9.436  10.416  11.488  11.734  12.347  12.442  11.850  15.300  11.890  12.957

    1.150  17.126
   17.276  17.683  17.228  20.082  15.928  15.100  18.625  15.158  18.753  21.601
   18.410  14.916  19.400  14.497  21.012  18.864  20.160  19.421  17.763  20.665
   18.471  15.260  15.548  19.054  15.805  16.028  17.181  17.820  19.483  21.526
   20.757  17.643  15.224  18.088  17.383  17.023  17.697  17.134  21.978  22.224
   17.594  13.539  13.404  16.314  15.148  17.714  17.476  16.600  19.116  15.705
   15.552  13.630  13.470  14.280  13.236  14.713  20.792  15.541  18.027  19.651
   14.779  10.974  15.979  14.055   9.825  12.548  16.841  16.500  17.178  18.637
   13.833  11.072  13.567  13.682  15.760  14.768  14.987  15.304  16.112  14.823
   13.841  13.481  14.714  12.034  13.211  10.743  13.936  14.274  16.354  14.613
    8.783  10.106  10.554  11.765  13.161  12.552  11.481  15.385  11.874  12.617

    1.200  16.794
   16.608  18.106  18.131  19.568  16.285  15.612  19.279  14.954  18.818  21.608
   18.870  15.141  19.874  15.330  20.677  18.351  20.541  19.580  17.587  19.552
   18.247  16.029  15.519  17.380  16.514  16.262  17.126  17.161  19.427  22.324
   19.926  17.845  14.275  18.497  18.058  17.027  17.115  17.162  22.014  22.251
   17.894  13.760  13.152  16.363  15.171  18.656  18.001  16.761  19.504  15.204
   16.282  12.677  12.822  14.388  13.380  14.942  21.758  16.772  18.037  19.875
   15.359  10.689  16.082  13.377   9.101  13.524  17.218  16.277  16.950  18.307
   14.848  11.730  13.594  14.027  15.462  14.339  15.153  15.823  16.225  14.827
   14.590  14.298  14.337  12.369  13.331  10.747  13.164  14.359  15.530  14.858
    8.982  10.328  10.796  12.899  13.295  13.209  12.309  15.334  12.984  12.035

    1.250  16.875
   18.039  17.782  16.532  18.565  16.517  15.086  20.010  15.061  18.170  21.686
   18.230  14.495  19.077  15.444  20.939  19.219  21.072  20.016  18.352  18.949
   18.043  16.127  15.285  17.098  17.330  16.853  17.169  17.282  19.472  22.046
   19.147  17.401  14.748  17.893  18.459  16.640  17.602  17.092  21.720  20.874
   17.808  13.583  12.809  16.054  15.169  18.587  17.748  16.244  20.472  16.279
   17.501  13.616  11.987  13.784  13.478  15.036  21.253  17.563  18.523  19.176
   16.029  10.550  15.434  13.016   9.159  13.621  16.939  16.222  16.572  17.537
   15.189  12.559  13.586  13.747  14.826  14.058  15.595  16.241  16.927  14.162
   14.416  14.536  14.140  12.120  13.087  10.601  13.258  13.356  15.142  15.281
    9.200   9.404  10.207  12.931  12.543  12.195  13.032  16.119  13.848  12.182

    1.300  17.145
   18.321  18.332  15.944  19.142  16.258  14.928  19.089  15.352  18.174  21.363
   17.676  15.194  19.565  14.378  20.234  18.907  20.570  19.777  18.693  18.611
   17.872  15.227  15.430  18.226  16.884  16.178  17.661  16.947  19.198  21.574
   18.852  16.676  14.815  17.935  17.517  16.234  17.166  16.886  22.339  21.578
   17.588  13.035  12.595  16.851  14.696  19.210  17.626  15.707  19.840  16.119
   17.178  15.014  12.909  13.775  14.095  16.032  20.647  17.612  18.814  19.767
   16.026  11.236  15.686  13.034   9.958  13.696  17.094  15.180  16.963  18.206
   14.828  12.043  13.955  13.952  15.117  12.816  16.306  15.704  16.920  14.149
   14.962  15.405  13.681  12.003  12.718  10.204  12.420  13.468  15.804  15.820
    8.290   9.934   9.607  13.183  12.539  12.162  13.614  15.219  13.100  12.778

    1.350  16.829
   18.795  17.866  16.752  19.104  14.711  14.987  19.203  15.100  17.632  21.281
   17.508  16.443  19.070  14.571  19.977  18.109  19.905  20.089  18.225  18.060
   17.444  15.052  15.680  18.145  16.489  15.403  17.796  16.983  19.954  21.894
   18.878  15.387  14.874  17.832  17.639  16.389  16.783  16.610  22.063  22.452
   17.183  13.289  12.431  17.331  14.773  19.177  17.402  16.300  20.298  16.032
   17.187  15.603  13.940  12.799  13.604  15.860  21.056  18.482  18.387  19.990
   16.219  10.792  15.287  12.233  10.492  13.343  16.429  15.820  16.741  18.152
   14.529  11.440  13.897  13.961  15.441  12.621  16.558  15.619  15.897  14.518
   14.612  15.951  13.393  11.965  13.845   9.769  12.168  13.126  16.010  15.459
    8.123   9.986   9.535  12.947  12.388  12.112  13.481  13.696  12.991  13.867

    1.400  17.232
   18.893  16.468  16.419  17.940  13.712  15.235  19.615  15.056  18.297  21.191
   15.797  17.058  18.346  14.524  20.368  18.027  19.921  20.123  17.878  17.742
   17.185  15.586  15.742  18.633  16.391  16.610  18.309  17.349  19.912  21.849
   17.761  16.103  14.714  18.291  17.677  16.019  17.403  15.249  22.407  22.960
   17.164  13.658  12.954  18.307  14.197  19.613  17.526  15.890  19.839  16.238
   16.582  16.385  13.709  12.418  14.612  15.296  21.103  18.042  19.175  20.436
   16.960  10.534  15.580  12.881  10.748  13.761  15.677  15.621  17.315  18.154
   14.664  11.402  13.585  13.269  14.700  12.963  16.346  15.533  15.365  14.579
   14.814  15.266  12.920  11.949  13.458   9.843  12.626  13.638  15.904  15.076
    9.080  10.246  10.766  12.997  12.251  13.044  12.488  13.864  12.572  13.430

    1.450  15.817
   18.365  17.113  16.261  17.732  14.314  15.350  20.331  14.774  18.714  21.087
   15.844  16.295  18.552  14.309  20.716  19.106  20.911  20.965  17.090  17.377
   17.015  15.333  15.818  19.643  16.289  17.067  19.171  17.402  20.914  21.515
   18.331  16.040  14.995  18.685  18.590  15.691  16.602  15.568  22.694  23.505
   17.283  13.641  12.979  18.168  13.529  18.158  17.762  17.015  19.976  15.550
   15.734  16.812  12.905  12.886  14.129  15.538  20.480  17.673  18.759  20.608
   16.595  11.824  15.075  12.456  11.499  13.848  15.477  15.616  17.611  18.531
   15.427  10.872  13.304  13.385  13.963  13.385  16.360  16.099  15.789  14.819
   14.685  14.882  14.521  11.746  12.688  10.786  12.887  13.259  15.793  14.731
    8.989  11.421  11.266  12.988  12.589  13.485  12.048  14.548  12.940  14.150

    1.500  14.912
   18.196  17.648  16.601  18.202  14.135  15.312  19.316  15.525  18.015  21.070
   16.069  16.330  18.600  13.987  21.607  19.519  21.065  20.661  15.459  16.601
   17.321  16.385  15.367  19.631  16.163  17.553  17.586  17.230  20.339  20.614
   19.699  15.390  15.501  18.155  18.119  16.151  16.000  15.332  22.456  23.064
   17.019  13.556  13.110  17.843  13.885  17.970  19.206  17.386  19.836  15.968
   16.767  15.460  12.011  12.994  14.099  15.525  20.323  17.974  18.750  20.708
   16.463  11.310  14.669  12.892  11.076  12.933  15.199  15.629  17.071  18.699
   15.728  10.870  13.398  13.585  14.049  12.253  15.809  16.043  15.239  14.674
   14.693  15.189  15.089  12.566  12.522   9.544  12.852  12.845  15.066  14.720
    8.811  11.446  11.269  12.080  12.450  11.682  11.266  14.556  13.046  13.906

    1.550  15.614
   18.331  17.131  16.955  18.597  14.893  15.374  19.140  15.304  18.982  20.892
   15.610  16.894  18.921  14.966  21.447  19.237  20.454  19.815  16.461  16.708
   17.533  15.364  16.203  19.856  17.672  18.199  17.283  17.178  20.214  21.229
   18.409  15.684  15.787  17.699  17.004  14.928  16.342  16.350  21.847  22.559
   16.404  13.641  12.730  18.377  14.953  17.486  19.381  17.915  19.191  16.945
   17.013  15.635  12.646  13.792  14.087  15.366  19.776  19.027  19.735  21.602
   16.402  10.357  15.496  13.511  11.932  12.627  15.013  17.427  17.253  18.630
   15.661  10.431  12.904  13.201  14.090  12.964  16.336  15.229  15.491  14.231
   14.092  14.863  15.637  13.092  13.119   9.106  12.841  13.924  14.710  14.441
    9.219  12.110  11.366  12.153  11.986  11.881  11.540  13.805  13.660  14.960

    1.600  15.415
   17.966  18.001  16.752  17.838  14.721  14.854  18.839  15.354  19.532  20.764
   16.018  16.962  18.010  15.120  22.214  18.789  18.778  20.107  17.322  16.988
   16.994  15.569  16.618  19.790  18.075  18.433  17.506  17.174  19.925  20.346
   17.460  16.872  16.158  17.969  16.418  14.799  17.641  16.156  21.146  20.648
   16.467  13.605  13.401  18.733  14.302  17.460  19.268  18.952  19.694  15.340
   17.714  14.634  12.618  13.016  14.188  15.612  20.398  19.237  19.097  21.003
   15.973  10.989  15.343  13.472  12.572  11.862  14.454  18.031  17.068  18.824
   15.118  11.067  11.769  13.456  14.525  13.292  17.017  14.948  14.853  13.514
   14.289  15.556  16.436  12.747  13.848   9.462  12.862  13.452  14.728  14.781
    9.996  11.525   9.654  11.896  11.651  11.928  11.913  14.326  13.649  14.461

    1.650  15.512
   17.542  18.108  16.586  17.376  15.236  14.886  17.983  14.957  19.496  20.362
   16.420  16.070  18.783  15.574  22.252  18.901  19.913  21.320  16.465  17.232
   16.380  15.807  15.830  20.208  17.588  17.595  17.872  16.788  20.216  20.493
   17.149  16.082  16.232  17.522  15.787  15.296  18.129  16.193  21.580  21.774
   15.622  13.790  13.572  18.327  14.048  16.899  18.391  19.623  18.342  15.263
   17.685  15.026  12.456  12.980  13.417  15.343  19.915  18.963  18.571  21.070
   16.260  11.280  15.673  13.904  12.488  10.450  15.489  18.491  17.610  18.613
   15.275  11.486  12.123  13.884  14.535  12.923  15.718  14.207  13.742  12.747
   14.326  15.938  15.997  11.975  13.017  10.573  12.795  14.867  15.641  14.902
    9.656  11.621   8.926  12.666  11.574  11.368  11.696  13.685  13.732  14.369

    1.700  15.438
   18.544  17.476  16.480  17.903  15.586  15.440  17.472  14.851  20.234  20.124
   15.572  16.140  18.050  16.677  21.035  19.181  19.252  21.414  17.169  16.772
   17.020  15.866  15.432  20.186  17.373  17.305  17.544  17.989  19.598  21.287
   16.804  15.289  16.208  18.184  16.476  15.731  17.417  15.935  20.899  21.904
   15.724  13.227  13.940  19.485  14.528  16.815  18.842  19.219  18.408  15.771
   17.566  16.038  11.400  12.791  12.961  15.226  20.184  19.043  18.746  21.939
   16.078  11.530  16.093  13.639  13.292  12.111  15.430  18.469  17.185  19.452
   14.050  12.400  12.657  14.130  14.106  13.314  15.302  14.198  14.123  13.228
   14.218  16.253  16.194  11.601  13.560  10.181  12.305  14.557  16.194  14.350
    9.708  11.599   9.555  13.993  11.164  12.040  11.671  13.824  13.519  14.329

    1.750  15.836
   18.506  17.400  16.864  17.884  14.480  15.778  17.050  14.521  20.218  20.225