
This full-field turbulence file was generated by TurbSim (v1.40, 12-Sep-2008) on 27-May-2021 at 14:31:28.

 | w-comp |  Y  x  Z  | Grid Resolution (Y x Z) | Time-step | Hub Elev | Mean U |
            10    10     15.556     15.556          0.050      89.60      9.00

 Z Coordinates (m):
  -70.000 -54.444 -38.889 -23.333  -7.778   7.778  23.333  38.889  54.444  70.000

 Y Coordinates (m):
  -70.000 -54.444 -38.889 -23.333  -7.778   7.778  23.333  38.889  54.444  70.000

    0.000  -0.922
    0.862   0.879  -0.237  -0.147   0.299   0.697   0.825  -0.924  -0.707   0.484
    0.488  -0.136  -0.276  -1.486  -0.353  -0.178   1.048   0.294   1.015  -0.605
    0.679  -0.081   0.366   0.015   0.890   0.161   1.227   0.203  -0.258   2.891
   -1.534  -0.515  -0.045  -0.164  -1.103   1.253  -0.734   0.353  -0.315  -1.029
   -0.742   0.354  -0.376   0.229  -0.173  -0.758   1.140  -1.480   0.857   0.533
    0.904  -0.377   0.073  -0.432   0.236   1.089  -0.627  -0.643   0.708   0.528
   -0.026  -0.378   0.212   0.902   0.222  -0.229   1.046  -0.797  -0.181   1.037
    0.323  -1.170   0.261  -0.099   0.644   0.607   1.246  -0.549  -0.159   0.068
   -0.854   0.538   0.652   0.482  -1.482   0.607   1.386   0.723  -0.089   0.571
    1.703   0.688   0.327  -0.908  -1.746  -0.268   0.941   0.178   1.663   0.666

    0.050  -0.726
    0.808   1.169  -0.337  -0.149  -0.347   1.019   0.589  -1.165  -0.663   0.635
    0.367   0.051  -0.330  -1.593  -0.613  -0.194   0.843  -0.180   1.182  -0.610
    0.162  -0.173  -0.116   0.016   0.141  -0.430   1.115  -0.038   0.053   2.691
   -1.483  -0.153   0.257  -0.117  -0.828   1.108  -0.676   0.695  -0.113  -1.093
   -0.474   0.255  -0.355   0.165   0.026  -0.344   1.051  -1.677   1.018   0.552
    1.017  -0.180   0.133  -0.603  -0.004   0.909   0.027  -1.186   1.355   0.220
    0.128  -0.120   0.013   0.584   0.252   0.119   1.119  -0.716   0.002   1.205
    0.170  -1.164   0.222   0.019   0.754   0.653   1.735  -0.540  -0.362  -0.205
   -0.667   0.276   0.240   0.577  -0.924   0.200   1.466   0.529  -0.240   0.779
    1.615   0.622   0.080  -0.688  -1.557  -0.481   1.131  -0.301   0.765   0.954

    0.100  -0.743
    0.964   0.710  -0.532  -0.035  -0.433   0.967   1.012  -1.234  -0.591   0.655
    0.766  -0.016  -0.079  -1.453  -0.381   0.169   0.450  -0.470   1.152  -0.432
    0.759  -0.445  -0.760  -0.080   0.241  -0.293   0.947   0.420  -0.134   2.728
   -1.434  -0.171   0.285   0.464  -0.718   0.776  -0.359   0.657  -0.163  -0.816
    0.153   0.166  -0.415  -0.179  -0.210  -0.319   1.254  -1.898   0.493   0.502
    1.401  -0.033  -0.047  -0.597   0.158   0.453   0.487  -1.363   1.487   0.130
    0.479  -0.311   0.005   0.687   0.340   0.633   1.042  -0.306   0.582   1.423
   -0.131  -1.168   0.413  -0.252   0.767   1.073   1.372  -0.285   0.180  -0.136
   -0.957   0.236  -0.006   0.540  -1.265  -0.095   1.034  -0.090  -0.616   0.520
    2.105   0.366  -0.059  -0.591  -1.791  -0.200   1.221  -0.530   1.115   1.179

    0.150  -0.910
    0.658   0.418  -0.643  -0.688  -0.818   0.787   0.885  -0.733  -0.465   0.384
    0.567   0.254  -0.140  -1.332  -0.630   0.122   0.106  -0.659   0.782  -1.057
    0.534  -0.269  -0.234  -0.055   0.498  -0.256   0.817   0.292  -0.117   2.489
   -1.501  -0.636   0.152   0.398  -0.321   0.605  -0.367   0.633  -0.252  -1.385
   -0.010   0.478  -0.677  -0.037  -0.342   0.071   0.850  -1.748   0.342   0.841
    1.331   0.114  -0.300  -0.755   0.487   0.340   0.229  -1.413   1.093   0.638
    0.505  -0.227   0.354   1.110   0.401   0.493   1.445  -0.438   0.109   1.144
   -0.134  -0.663   0.141  -0.065   0.332   0.838   1.200  -0.392   0.237   0.199
   -0.422  -0.192  -0.023   0.372  -1.628  -0.540   1.329  -0.043  -0.588   0.415
    2.361  -0.237   0.261  -0.408  -1.811  -0.017   0.493  -0.429   0.927   1.216

    0.200  -1.147
    0.501   0.190  -0.685  -0.442  -0.790   0.887   1.022  -0.542  -0.619   0.416
    0.229   0.212  -0.459  -1.302  -1.174  -0.099   0.159  -0.579   0.860  -1.042
    0.658  -0.535  -0.108   0.274   0.335  -0.530   0.532   0.027  -0.319   2.385
   -1.396  -0.708   0.270   0.374  -0.388   0.520  -0.430   0.209  -0.033  -0.914
   -0.211   0.567  -0.620   0.185   0.050   0.426   0.563  -1.628   0.622   0.648
    1.123   0.622   0.042  -0.694   0.447   0.676   0.322  -1.217   1.146   0.284
    0.589  -0.788   0.174   1.009   0.008   0.092   1.158   0.173  -0.319   1.030
   -0.159  -0.742   0.098  -0.059   0.295   0.581   1.154  -0.199   0.511   0.290
   -0.143  -0.538   0.280   0.415  -1.396  -0.460   1.406  -0.025  -0.377   0.215
    1.917  -0.106   0.606  -0.503  -1.784  -0.109  -0.067  -0.738   0.741   0.816

    0.250  -1.055
    0.419  -0.129  -0.963  -0.675  -0.799   0.908   1.094  -0.934  -1.458   0.490
    0.450  -0.067  -0.492  -0.999  -0.879   0.180   0.062  -0.689   0.813  -0.544
    0.104  -0.525  -0.501   0.257   0.309  -0.415   0.331  -0.095   0.434   1.909
   -1.151  -0.307   0.066   0.283  -0.422   0.514  -0.400  -0.169   0.125  -0.992
   -0.248   0.832  -0.099   0.112   0.377   0.232   0.864  -2.027  -0.218   0.572
    0.792   0.494  -0.079  -0.593   0.210   0.729   0.222  -1.320   1.091   0.760
    0.335  -0.610  -0.007   0.941  -0.505   0.235   0.536  -0.366  -0.517   0.836
    0.241  -0.931   0.579  -0.013   0.214   0.527   1.417  -0.440   0.071   0.074
   -0.317  -0.646   0.032  -0.295  -1.518   0.334   0.933  -0.363  -0.150   0.443
    1.839  -0.245   0.518  -0.056  -1.105  -0.058  -0.096  -0.940   0.830   0.922

    0.300  -1.131
    0.526   0.157  -0.679  -1.259   0.116   1.317   1.406  -0.944  -1.835   0.180
    0.936  -0.029  -0.314  -1.499  -0.590   0.133  -0.025  -0.812   0.793  -0.613
   -0.031  -0.481  -0.812   0.261   0.155  -0.664   0.768   0.570   0.797   1.751
   -1.361  -0.361   0.145   0.478  -0.744   0.490  -0.848  -0.242   0.068  -0.745
   -0.104   1.086  -0.400   0.223   0.552   0.138   1.060  -1.810   0.033   0.404
    0.720   0.433  -0.456  -0.274   0.329   0.639  -0.174  -1.123   1.179   0.498
    0.328  -1.364  -0.316   0.980  -0.444  -0.167   0.486  -0.147  -0.564   0.795
    0.055  -1.294   0.139  -0.169   0.292   0.629   1.344  -0.603  -0.102  -0.301
   -0.292  -1.006  -0.388   0.175  -1.709   0.011   0.833   0.009  -0.207   0.235
    1.966  -0.381   0.341   0.202  -0.741   0.350  -0.344  -0.768   0.730   0.774

    0.350  -1.393
    0.355   0.175  -0.742  -0.915  -0.130   0.920   1.427  -0.698  -2.232   0.189
    1.303   0.486  -0.478  -1.685  -0.644  -0.268  -0.403  -0.533   1.179  -0.496
   -0.198  -0.562  -1.254   0.468  -0.027  -0.699   1.395   0.340   0.577   1.831
   -1.319  -0.365   0.090   0.679  -0.992   1.073  -0.415  -0.051  -0.227  -0.554
    0.134   1.001  -0.525   0.151   0.224  -0.148   0.783  -1.470   0.171   0.349
    1.090   0.824  -0.860  -0.476   0.226   0.334   0.088  -0.945   1.528   0.372
    0.722  -1.539  -0.324   1.028  -0.205  -0.311   0.031   0.086  -0.655   0.907
    0.214  -1.332   0.081  -0.026   0.598   0.594   1.117  -0.508   0.177  -0.163
   -0.361  -1.124  -0.299   0.615  -1.853  -0.097   0.699  -0.101  -0.178   0.257
    1.897   0.053   0.229  -0.178  -0.815   0.223  -0.563  -0.438   0.974   0.421

    0.400  -1.325
    0.484   0.027  -0.917  -0.660  -0.804   0.974   1.504   0.025  -1.951   0.090
    0.596   0.008   0.205  -1.120  -0.633  -0.071  -0.356  -0.941   1.277  -0.452
   -0.755  -0.363  -0.934   0.230   0.335  -0.451   1.222   0.062   0.657   2.338
   -1.196  -0.581  -0.069   0.466  -1.109   0.978  -0.723  -0.076  -0.088  -0.575
    0.090   1.105  -0.363  -0.224  -0.069  -0.716   0.349  -1.475  -0.683   0.217
    1.277   0.832  -0.901  -0.460   0.907   0.243   0.131  -1.055   1.840   0.297
    0.541  -0.949  -0.320   1.177  -0.596  -0.547  -0.313  -0.264  -0.499   0.402
    0.442  -1.542   0.116   0.068   0.749   0.437   1.321  -0.430   0.089  -0.100
   -0.483  -1.099   0.140   0.721  -1.297  -0.219   0.691  -0.017  -0.247   0.945
    2.202  -0.277  -0.457  -0.160  -1.048  -0.089  -0.775  -0.421   1.021   0.180

    0.450  -1.373
    0.173   0.073  -1.295  -0.430  -0.168   0.842   0.994  -0.346  -2.211   0.175
    0.443  -0.390   0.247  -1.474  -0.481   0.115  -0.454  -1.197   0.916  -0.230
   -0.841  -0.145  -0.996   0.272   0.244  -0.769   0.715   0.487   0.576   2.358
   -0.582  -0.621   0.318   0.777  -1.328   0.802  -0.281  -0.211  -0.662  -0.233
    0.364   0.862  -0.493  -0.478   0.047  -0.954   0.608  -1.432  -0.210   0.556
    0.910   0.178  -0.898  -0.057   1.324   0.459   0.119  -1.270   1.845   0.144
    0.203  -0.518  -0.084   1.435  -0.986  -1.051  -0.250   0.361  -0.524   0.265
    0.241  -1.200   0.506  -0.176   0.694   0.503   1.435  -0.501   0.536  -0.289
   -0.834  -0.734  -0.099   0.636  -1.620  -0.054   0.588   0.115  -0.102   0.462
    2.426   0.185  -0.507  -0.042  -0.874  -0.520  -0.704  -0.117   1.074  -0.162

    0.500  -1.088
   -0.009   0.066  -1.404  -1.352  -0.125   1.060   1.242   0.082  -2.139   0.207
    0.575  -0.700   0.113  -1.027  -0.758  -0.175  -0.199  -1.573   0.793   0.115
   -0.483   0.317  -0.365  -0.359   0.466  -0.724   0.586   0.582   0.539   2.657
   -0.476  -0.662   0.209   1.316  -1.265   0.647   0.017  -0.085  -0.688  -0.604
    0.368   0.507  -0.420  -0.438   0.368  -1.248   0.735  -1.166   0.007   0.845
    0.815  -0.024  -0.668  -0.127   1.222   0.378  -0.074  -1.081   1.514  -0.054
    0.111   0.129  -0.181   1.173  -1.004  -1.536  -0.517  -0.225  -0.337   0.634
    0.115  -1.154   0.325   0.283   0.702   0.293   0.943  -0.322   0.817   0.136
   -0.851  -0.980  -0.357   0.618  -1.519   0.159   0.519   0.184  -0.161   0.294
    2.064   0.125  -0.198  -0.385  -0.815  -0.689  -0.725  -0.090   1.227   0.016

    0.550  -1.230
    0.243  -0.122  -1.774  -0.956   0.188   0.674   1.297   0.309  -1.379   0.179
    0.759  -0.896   0.188  -0.635  -0.933  -0.233  -0.029  -0.988   1.273  -0.311
   -0.543   0.169  -0.632  -0.617   0.435  -0.689   0.553   0.718   0.587   2.849
   -0.653  -0.541   0.105   0.986  -0.938   0.287   0.153  -0.184  -0.480  -0.432
    0.707   0.506   0.079  -0.274   0.295  -0.649   0.227  -1.055  -0.114   0.570
    0.740  -0.016  -0.918  -0.359   1.223   0.155   0.258  -1.020   1.699   0.189
   -0.104   0.084  -0.564   1.113  -1.041  -1.168  -0.229  -0.079  -0.615   0.655
    0.473  -1.221   0.726   0.678   0.903   0.270   1.485  -0.842   0.214  -0.219
   -0.885  -1.134  -0.471   0.890  -1.352  -0.076   0.804   0.567   0.165   0.623
    2.009   0.005  -0.091  -0.313  -0.861  -0.113  -1.532  -0.077   1.343   0.420

    0.600  -1.260
    0.095  -0.307  -1.553  -0.944  -0.497   0.644   1.795   0.110  -1.979  -0.047
    0.668  -1.247   0.434  -0.929  -0.569  -0.180   0.567  -0.882   0.763  -0.061
   -0.257  -0.299  -0.716  -0.317   1.045  -0.328   0.234   0.633   0.497   2.316
   -1.004  -0.621   0.272   0.992  -0.857   0.411  -0.458  -0.548  -0.555  -0.623
    1.099   0.914   0.056   0.150   0.423  -0.423  -0.110  -1.271   0.331   0.632
    0.785   0.146  -0.724  -0.186   1.138   0.594  -0.257  -1.245   1.588  -0.024
   -0.440  -0.181  -0.229   1.575  -0.949  -0.699  -0.343  -0.111  -0.483   0.416
    0.551  -1.024   0.580   0.539   0.589   0.701   1.574  -1.112   0.681  -0.613
   -0.495  -1.207  -0.717   1.268  -1.541  -0.012   1.353   0.530   0.581   0.468
    2.208  -0.114   0.220  -0.263  -0.895  -0.192  -1.492   0.077   1.625   0.531

    0.650  -1.068
    0.106   0.002  -1.748  -0.821  -0.442   0.341   1.940   0.415  -2.178   0.083
    0.833  -1.252   0.575  -0.713  -0.859   0.143   1.116  -0.927   1.093  -0.300
   -0.697  -0.542  -0.821  -0.187   0.899  -0.728   0.136   0.304   0.175   2.490
   -1.597  -0.986   0.462   0.879  -1.295   0.467  -0.494   0.023  -0.612  -0.552
    0.477   1.004   0.078   0.301   0.541  -0.833  -0.471  -1.368   0.485   1.140
    0.147   0.421  -0.260  -0.212   1.499   0.684   0.403  -1.373   1.602  -0.146
   -0.635  -0.069  -0.099   1.139  -0.862  -0.544   0.079  -0.177  -0.906   0.319
    0.128  -0.886   0.646   0.122   1.040   0.656   1.420  -1.368   0.261   0.070
   -0.422  -1.214  -1.026   1.085  -1.073  -0.003   1.515   0.630   0.480   0.512
    1.889  -0.525   0.868  -0.524  -0.890  -0.619  -1.412  -0.175   1.712   1.066

    0.700  -1.194
    0.200   0.062  -1.793  -0.589   0.052   0.168   1.777   0.268  -1.811  -0.353
    0.546  -1.306   0.358  -0.496  -1.001   0.290   1.012  -1.472   1.704  -0.362
   -0.952  -0.027  -1.090  -0.237   0.493  -0.307   0.090   0.433  -0.047   2.374
   -1.554  -0.846   0.813   0.682  -1.207   0.117  -0.343   0.624  -0.642  -0.623
    0.513   0.910   0.230   0.483   0.062  -0.784  -0.230  -1.406   0.489   0.937
    0.154   0.336  -0.351   0.145   0.904   0.020   0.437  -1.039   1.512   0.088
   -0.207   0.027   0.152   0.860  -0.833  -0.334  -0.093  -0.260  -1.323   0.534
   -0.225  -1.043   0.263   0.268   0.946   0.376   1.795  -1.082   0.241   0.289
   -0.238  -0.600  -1.014   0.854  -0.992  -0.325   1.182   0.433   0.505   0.338
    1.901  -0.241   0.528  -0.592  -1.397  -0.582  -1.777  -0.198   1.858   0.936

    0.750  -0.989
    0.283  -0.116  -1.050  -0.409   0.282   0.061   1.161   0.188  -1.577  -0.750
    0.496  -0.865  -0.130  -0.296  -1.328   0.605   1.346  -1.199   1.402  -0.300
   -0.992   0.078  -0.753  -0.697   0.692  -0.805   0.100   0.232   0.403   2.564
   -1.202  -1.227   0.659   0.429  -1.197   0.234  -0.652   0.690  -0.709  -0.698
    0.342   0.393   0.102   0.738  -0.086  -0.878  -0.393  -1.354   0.194   1.010
    0.836  -0.007  -0.531  -0.086   0.761  -0.001   0.476  -0.828   1.156   0.200
   -0.548   0.025   0.628   1.248  -0.491  -0.133  -0.548   0.246  -1.347   0.483
   -0.513  -0.556   0.230   0.184   0.671   1.099   1.785  -1.065   0.559   0.124
   -0.482  -0.926  -0.665   1.050  -0.873  -0.264   0.932   0.396   0.351  -0.140
    1.899   0.077   0.474  -0.392  -1.222  -0.631  -2.564  -0.289   1.359   0.778

    0.800  -0.692
   -0.119   0.052  -0.720  -0.614   0.858   0.040   0.972   0.129  -1.598  -0.648
    0.504  -0.566   0.297  -0.176  -1.300   0.184   0.805  -1.469   1.450  -0.174
   -1.206   0.377  -0.825  -0.443   0.664  -0.585   0.122  -0.108   0.656   2.508
   -1.383  -1.498   0.628   0.844  -0.913   0.188  -0.360   0.724  -0.551  -0.868
    0.199   0.395   0.098   0.257  -0.505  -1.013  -1.118  -0.953  -0.167   1.488
    0.317  -0.081  -0.595  -0.695   0.925  -0.437   0.530  -0.986   1.062   0.367
   -0.567  -0.232   0.560   1.201  -0.159   0.004  -0.025   0.510  -0.633   0.227
   -0.874  -0.794   0.426   0.626   0.669   1.436   2.401  -1.096   0.185  -0.068
   -0.815  -1.278  -1.306   1.455  -1.491  -0.302   0.925   0.492   0.646   0.044
    1.726  -0.279   0.588  -0.857  -1.220  -0.840  -2.456  -0.143   1.383   0.474

    0.850  -0.592
    0.206   0.073  -0.999  -0.874   0.190  -0.407   1.060  -0.042  -1.650  -0.183
    0.540  -0.421   0.419  -0.144  -0.981   0.378   1.007  -1.207   1.277   0.005
   -0.551   0.438  -0.861  -0.081   0.693  -0.559   0.267   0.076   0.890   2.188
   -1.744  -1.399   0.083   0.627  -0.005   0.186   0.331   0.185  -0.180  -0.652
    0.369   0.301   0.010  -0.179  -0.525  -1.133  -1.147  -1.442  -0.124   1.323
    1.084   0.541  -0.503  -0.622   0.157  -0.574   0.547  -1.038   0.988   0.099
   -0.075  -0.034   0.797   1.218  -0.514  -0.032  -0.395   0.829  -0.665  -0.103
   -1.008  -0.953   0.554   0.355   0.974   1.200   2.337  -0.932   0.615  -0.061
   -0.193  -1.235  -1.548   0.973  -1.018   0.027   0.885   0.057   0.798   0.142
    1.279  -0.480   0.405  -1.074  -1.221  -0.686  -2.316  -0.129   0.900   0.455

    0.900  -0.419
    0.384   0.214  -1.033  -0.716  -0.436   0.446   0.813  -0.518  -1.624  -0.592
    0.627  -0.411   0.611  -0.345  -0.872  -0.086   0.976  -1.466   0.583  -0.039
   -0.452   0.460  -0.548  -0.377   1.096  -0.346   0.795  -0.036   0.874   2.425
   -1.949  -1.118   0.178   0.998  -0.080   0.292   0.172  -0.118  -0.412  -0.589
   -0.048   0.868  -0.447   0.235  -1.250  -1.207  -1.246  -1.658  -0.337   0.914
    1.022   0.784  -0.417  -0.464   0.179  -0.417   0.575  -0.854   1.047   0.075
   -0.210  -0.083   0.679   1.506  -0.554   0.014  -0.476   1.109  -0.337   0.706
   -0.771  -1.232   0.807   0.343   0.648   0.909   2.030  -0.940   0.488  -0.056
    0.123  -1.395  -1.274   0.867  -0.711  -0.300   1.011   0.163   0.498   0.232
    1.500   0.445   0.241  -1.265  -1.256  -0.788  -2.699  -0.121   1.293   0.311

    0.950  -0.607
    0.278  -0.051  -0.607  -0.597  -0.220   0.322   0.491  -0.415  -1.362  -0.919
    0.818  -0.512   0.731  -0.714  -1.213  -0.249   0.939  -1.204   0.812  -0.185
   -0.576   0.940  -0.364  -0.651   1.069  -0.681   0.596   0.354   0.474   2.503
   -1.710  -0.899  -0.166   0.729   0.186   0.654  -0.241  -0.671  -0.076  -0.778
   -0.631   0.470   0.155  -0.386  -1.170  -1.608  -1.270  -1.576  -0.606   0.938
    0.727   0.418  -0.345  -0.453   0.542  -0.192   0.439  -0.648   0.780  -0.104
   -0.241  -0.246   0.738   1.437  -0.334  -0.393  -0.663   0.904   0.103   1.048
   -1.275  -1.128   0.676   0.168   0.600   0.824   1.863  -1.183   0.306  -0.479
    0.100  -1.786  -1.109   0.700  -0.641  -0.360   0.936  -0.231   0.384   0.250
    1.493   0.486   0.428  -0.870  -0.953  -0.806  -2.318  -0.268   1.243   0.163

    1.000  -0.434
   -0.029   0.021  -0.751  -0.686  -0.359   0.067   0.965  -0.417  -0.701  -0.918
    1.100  -0.237   0.678  -0.868  -1.486   0.214   1.099  -1.204   0.017  -0.174
   -0.841   0.983  -0.487  -0.566   0.883  -1.105  -0.099   0.410   0.266   2.566
   -1.875  -1.455   0.269   0.451   0.312   0.380   0.415  -0.552  -0.310  -0.490
   -0.340   0.365   0.118  -0.788  -1.078  -1.591  -1.134  -1.252  -0.198   0.177
    0.477   0.858  -0.306  -0.313   0.360   0.272   0.646  -0.399   0.619  -0.171
    0.110  -0.206   1.359   1.497  -0.436  -0.621  -0.305   1.191   0.701   0.768
   -1.186  -0.969   0.906   0.558   0.465   1.050   1.398  -1.248  -0.006  -0.351
   -0.038  -1.602  -1.295   0.633  -0.741  -0.687   1.054  -0.294   0.216   0.056
    1.495   0.775   0.072  -1.089  -1.051  -0.704  -2.243  -0.002   0.991   0.535

    1.050  -0.121
    0.051   0.365  -0.886  -0.370  -0.819  -0.037   0.824  -0.656  -0.613  -0.914
    1.059  -0.376   0.650  -0.834  -1.595  -0.163   1.686  -1.254   0.606  -0.137
   -0.455   0.492  -0.611  -0.371   1.402  -0.355   0.085   0.503   0.444   2.389
   -1.943  -1.298   0.466   0.859   0.718  -0.243   0.374  -0.171  -0.036   0.049
   -0.405   0.192  -0.529  -0.750  -1.483  -1.366  -1.054  -0.816  -0.072   0.391
    0.743   1.048  -0.262  -0.322  -0.076   0.404   0.539  -0.090   0.955   0.379
   -0.153  -0.434   1.895   1.740  -0.747   0.026  -0.749   1.177   0.679   0.463
   -1.269  -1.048   1.211   1.098   0.060   0.688   0.824  -1.136   0.212  -0.480
    0.514  -1.847  -1.352   0.662  -0.922  -0.536   0.958  -0.948   0.453   0.160
    1.582   0.728   0.212  -0.639  -1.117  -0.973  -2.267   0.060   1.192   0.375

    1.100   0.448
    0.115  -0.162  -0.942  -0.185  -0.841   0.494   0.532  -0.400  -0.249  -0.607
    1.156  -0.508   0.914  -0.910  -0.964  -0.234   2.131  -1.657   0.667   0.171
   -0.668   0.226  -0.759   0.114   1.613  -0.522  -0.651   0.623  -0.022   2.605
   -1.524  -1.078   0.330   0.458   0.497  -0.427   0.449  -0.257   0.051   0.184
   -0.295   0.585  -0.440  -1.094  -1.112  -1.437  -1.282  -0.232  -0.294   0.719
    0.989   0.791  -0.240  -0.351  -0.471   0.558   0.246  -0.541   0.690   0.139
    0.052  -0.153   1.628   1.864  -1.128  -0.197  -0.547   1.300   0.807   0.408
   -1.084  -1.159   1.029   0.562  -0.111   0.402   0.570  -0.757  -0.041  -0.559
    0.397  -1.545  -1.820   0.853  -0.579  -0.916   0.609  -1.088   0.478   0.256
    1.702   0.886   0.442  -0.541  -1.406  -0.646  -2.292  -0.452   1.056   0.237

    1.150   0.705
    0.090   0.314  -1.072  -0.672  -1.322   0.864   0.968  -0.122   0.164  -0.737
    0.811  -0.147   0.512  -0.538  -0.766  -0.395   1.935  -1.645   0.330  -0.204
   -0.939   0.114  -0.722   0.695   1.727  -0.361  -1.312   0.758  -0.210   2.414
   -1.494  -1.410   0.541  -0.058   0.195   0.229  -0.109   0.020  -0.406   0.038
   -0.064   0.380  -0.725  -0.960  -1.078  -1.426  -1.281  -0.422  -0.149   1.041
    1.045   1.459  -0.124  -0.534  -0.371   0.613  -0.034  -0.257   0.926   0.024
    0.591   0.121   2.025   1.953  -0.857  -0.415  -0.370   1.043   0.172   0.587
   -1.268  -0.889   0.596   0.945  -0.120   0.509   0.557  -1.166   0.048  -0.503
   -0.332  -1.554  -1.906   1.088  -0.295  -1.121   0.437  -0.757   0.734   0.100
    1.052   1.052   1.002  -0.430  -1.522  -0.898  -1.862  -0.556   0.878   0.194

    1.200   0.507
    0.433   0.269  -0.874  -0.808  -1.250   0.942   1.141  -0.317  -0.431  -1.107
    0.773  -0.741   0.554  -0.286  -0.729  -0.384   1.928  -1.352   0.556  -0.687
   -0.490   0.079  -1.054   0.210   1.323   0.048  -1.631   1.342   0.246   2.313
   -1.594  -0.849   0.477   0.075   0.129  -0.056  -0.009   0.026  -0.838   0.291
   -0.082   0.200  -0.391  -0.889  -1.235  -1.044  -1.083  -0.710  -0.345   0.824
    1.313   1.423   0.322  -0.379  -0.361   0.702   0.335  -0.532   0.893  -0.292
    0.541  -0.065   2.107   1.739  -1.099  -0.652  -0.746   1.389   0.148   0.672
   -1.089  -1.029   0.718   0.610  -0.204   0.249   0.775  -0.702   0.292  -0.288
   -0.174  -1.524  -1.760   1.519  -0.571  -0.825   0.386  -0.230   0.815  -0.118
    1.201   1.097   0.937  -0.319  -1.686  -0.679  -2.157  -0.365   0.443   0.320

    1.250   0.361
   -0.297  -0.025  -0.618  -0.870  -0.525   0.880   1.255  -0.144  -0.151  -1.049
    0.782  -0.989   0.719   0.098  -0.592  -0.640   1.404  -0.866   0.425  -0.802
   -0.587  -0.033  -1.006   0.295   1.265   0.305  -1.600   1.255   0.688   2.054
   -1.456  -0.680   0.294   0.344  -0.657  -0.110  -0.522   0.124  -0.833  -0.098
   -0.198   0.234  -0.398  -1.491  -1.409  -1.415  -1.270  -0.134  -0.620   0.642
    1.553   1.064   0.576  -0.386   0.002   0.902   0.494  -0.430   0.968  -0.756
    0.573   0.363   1.573   1.530  -0.798  -0.212  -0.673   1.101   0.131   0.837
   -1.670  -0.996   0.227   0.112  -0.047  -0.211   1.040  -0.328   0.322  -0.476
   -0.421  -1.012  -1.578   1.098  -0.577  -0.468   0.624  -0.045   1.121   0.217
    1.082   1.174   0.929   0.048  -1.895  -0.656  -1.555  -0.447   0.302   0.568

    1.300  -0.046
   -0.409   0.602  -0.450  -1.696  -0.277   1.020   1.422  -0.214   0.021  -1.186
    0.996  -0.757   1.141   0.169  -0.797  -0.680   1.574  -0.765   0.513  -0.481
   -1.071   0.410  -0.682   0.233   1.559   0.693  -1.928   1.267   0.538   1.587
   -1.299  -1.300   0.432   0.209   0.245   0.187  -0.646  -0.089  -0.653  -0.595
    0.243  -0.023  -0.391  -1.606  -1.673  -1.568  -1.157  -0.430  -0.870   0.013
    1.840   1.413   0.604  -0.354  -0.456   0.527  -0.013  -0.465   0.933  -0.745
    0.505   0.718   1.476   1.068  -0.372  -0.301  -0.319   0.013   0.001   0.549
   -1.404  -0.593   0.470   0.613   0.318  -0.568   1.509  -0.188   0.739  -0.463
   -0.667  -1.566  -1.076   0.980  -0.773  -0.753   0.131  -0.409   0.641  -0.158
    1.427   0.834   0.736  -0.119  -1.623  -0.683  -1.073  -1.114   0.339   0.179

    1.350  -0.711
   -0.054   0.904  -0.446  -1.503  -0.160   0.741   1.390  -0.606   0.576  -1.257
    1.220  -0.537   0.555   0.242  -1.055  -0.719   1.529  -0.767   0.528  -0.764
   -0.800   0.489  -0.608  -0.262   1.463   0.456  -1.813   1.113   0.660   1.562
   -1.196  -0.816   0.623  -0.053  -0.262   0.301  -0.415  -0.213  -0.410  -0.847
    0.224   0.114   0.353  -1.412  -1.133  -1.812  -1.239  -0.700  -0.798  -0.271
    1.416   1.249   0.125  -1.301  -0.303   0.672   0.084  -0.512   1.026  -0.939
    1.007   0.769   1.822   0.575  -0.707  -0.605  -0.634   0.398  -0.096   0.406
   -1.077  -0.754   0.591   0.564   0.572  -0.677   1.623  -0.159   1.015  -0.399
   -0.476  -1.392  -1.057   0.507  -0.637  -1.295   0.044  -0.202   0.255  -0.194
    1.371   0.477   0.705  -0.626  -1.272  -0.497  -1.430  -0.817   0.362   0.107

    1.400  -0.554
    0.641   0.990  -0.680  -1.962  -0.248   0.219   0.863  -0.444   0.891  -0.829
    0.985  -1.148   0.514   0.407  -0.835  -0.475   1.202  -0.432   0.275  -0.888
   -0.927   0.494  -0.845  -0.707   1.346   0.830  -0.900   1.355   0.734   2.023
   -1.673  -0.552   0.723   0.276   0.111   0.091  -0.179  -0.283  -0.411  -0.948
    0.017   0.623   0.653  -1.402  -1.933  -1.751  -1.297  -0.891  -0.985  -0.477
    1.797   1.360  -0.024  -1.396  -0.113   0.491   0.041  -0.177   0.693  -0.856
    0.730   0.970   1.746   0.815  -0.537  -0.443  -0.181   0.416   0.166   0.029
   -1.352  -0.483   0.282   0.567   0.681  -1.177   1.482  -0.610   1.011  -0.373
   -0.489  -1.376  -0.981   0.701  -0.637  -0.995  -0.498  -0.272   0.499  -0.128
    1.462   0.031   0.577  -0.451  -1.269  -0.401  -1.397  -1.267   1.001   0.433

    1.450  -0.425
    1.234   0.693  -0.479  -1.908  -0.180   0.317   0.890  -0.817   1.404  -0.725
    0.376  -1.494   0.321   0.215  -0.282  -0.151   0.966  -1.054   0.156  -0.712
   -1.001   0.918  -0.926  -1.006   1.241   0.575  -0.994   1.166   0.998   2.277
   -1.746  -0.188   0.775   1.000   0.239  -0.070   0.109  -0.324   0.204  -0.401
    0.084   0.361   0.343  -1.013  -2.075  -1.729  -1.251  -0.693  -0.826  -0.662
    1.448   1.380  -0.712  -1.343  -0.227   0.461  -0.145  -0.680   0.018  -0.738
    0.744   0.646   1.395   0.776  -0.791  -0.826   0.162  -0.215  -0.001   0.091
   -1.586  -0.182   0.073   0.860   0.246  -1.366   1.661  -0.587   0.672  -0.094
   -0.272  -1.019  -0.726   0.478  -0.755  -1.553  -0.409  -0.612   0.504   0.040
    1.213  -0.334   0.843  -0.268  -0.911  -0.572  -0.921  -1.281   0.735   0.741

    1.500  -0.662
    1.490   0.738   0.086  -1.636  -0.404   0.459   1.011  -1.209   1.199  -0.215
    0.562  -0.951   0.716   0.388   0.060   0.475   1.326  -0.733   0.281  -0.580
   -0.897   1.066  -0.935  -1.151   0.798  -0.119  -1.603   1.757   0.965   2.523
   -2.059  -0.154   0.897   0.691   0.262  -0.080   0.046   0.039   0.578  -1.022
   -0.805   0.281   0.572  -1.264  -1.883  -1.669  -1.520  -1.045  -0.217  -1.030
    1.148   1.273  -0.849  -1.226  -0.636   0.690  -0.263  -0.420  -0.257  -0.857
    0.559   0.652   1.528   0.425  -0.737  -0.490   0.244   0.190   0.007   0.156
   -1.393  -0.605   0.092   0.594   0.100  -1.127   1.639  -0.721   0.006  -0.354
   -0.281  -1.062  -0.504   0.812  -0.605  -1.655  -0.399  -0.398   0.775   0.064
    1.962   0.171   0.693  -0.432  -0.729  -0.633  -0.926  -0.935   0.794   1.014

    1.550  -0.679
    1.569   0.969   0.142  -1.786   0.130   0.335   0.957  -1.013   0.483   0.125
    0.918  -1.113   0.697   0.544   0.300   1.121   1.367  -0.906   0.219  -0.688
   -0.699   0.627  -0.729  -0.999   0.797  -0.087  -1.386   1.687   0.700   2.668
   -1.915  -0.359   0.741   0.666   0.099  -0.136  -0.121  -0.394   0.782  -1.286
   -0.967   0.060   0.550  -1.145  -1.739  -1.833  -1.709  -1.025  -0.026  -0.453
    1.374   1.644  -0.319  -1.133  -0.416   0.146  -0.324  -0.482   0.140  -0.685
    0.478   0.239   1.618   0.761  -1.078  -0.522   0.360   0.410  -0.640   0.521
   -1.419  -0.936  -0.113   0.371   0.238  -0.915   1.322  -0.572   0.030  -0.513
   -0.366  -1.164  -0.694   1.368  -0.085  -1.521  -0.199   0.092   0.402   0.112
    1.712  -0.049   0.404  -0.293  -0.681  -0.111  -1.186  -0.837   0.479   1.460

    1.600  -0.501
    1.538   1.110  -0.454  -1.600   0.313   0.761   0.835  -1.075  -0.373  -0.063
    0.652  -1.040   0.511   0.729   0.169   1.042   1.200  -1.032   0.442  -0.422
   -0.549   1.377  -0.171  -1.171   0.331   0.349  -1.285   1.100   0.949   3.008
   -1.816  -0.312   0.105   0.707  -0.255   0.205   0.174  -0.150   0.169  -0.821
   -0.560   0.474   0.630  -1.203  -1.940  -1.490  -1.571  -1.112   0.074  -0.392
    1.066   1.505  -0.035  -0.926  -0.785   0.433  -0.438  -0.143   0.172  -0.712
    0.327  -0.028   1.028   0.820  -0.848  -0.019   0.049   0.043  -0.491   0.844
   -1.188  -0.692  -0.525   0.832   0.322  -0.726   1.277  -0.304  -0.478  -0.303
   -0.294  -1.371  -0.789   0.588  -0.208  -1.786   0.082   0.354   0.500   0.317
    2.195  -0.275   0.193  -0.213  -0.954   0.357  -1.253  -1.006   0.151   1.008

    1.650  -0.438
    1.566   1.299  -0.269  -1.410   0.165   0.171   0.770  -1.377  -0.020  -0.115
    1.002  -0.995   0.032   0.000   0.622   0.992   0.758  -0.933   0.901  -0.475
   -0.558   1.375  -0.762  -1.205   0.597   0.341  -1.633   0.902   1.162   2.884
   -1.867  -0.317   0.203   0.784  -0.664   0.444   0.302  -0.060  -0.244  -0.777
   -0.230   0.756   0.500  -1.474  -1.843  -1.372  -1.572  -0.879   0.240   0.049
    1.103   1.464   0.098  -0.263  -0.592   0.213  -0.601  -0.327   0.276  -0.972
    0.647  -0.340   1.129   0.631  -1.224   0.164  -0.416   0.262  -0.559   0.806
   -1.307  -0.704  -0.287   1.377   0.227  -0.829   1.241  -0.223  -0.320  -0.342
   -0.491  -1.382  -1.092   0.556  -0.162  -1.875   0.009   0.313   0.158   0.364
    2.331  -0.468   0.830   0.036  -0.791   0.038  -0.830  -0.786  -0.352   0.954

    1.700  -0.416
    1.778   1.158  -0.589  -1.043   0.085  -0.246   0.592  -0.552  -0.092  -0.280
    1.382  -1.432   0.184   0.579   0.624   1.284   0.566  -1.103   0.999  -0.574
   -0.411   1.318  -1.045  -1.752   0.347   0.344  -1.161   1.574   1.247   2.451
   -1.751  -0.209   0.178   0.740  -0.640  -0.065   0.171  -0.201   0.396  -0.481
   -0.155   0.708   0.634  -1.433  -1.727  -1.754  -1.430  -1.188  -0.359  -0.329
    1.342   1.613   0.145   0.114  -0.831   0.194  -0.386  -0.807   0.077  -0.697
    0.678   0.120   1.345   0.687  -1.163  -0.241  -0.273   0.835  -1.046   0.795
   -1.071  -0.828   0.011   1.346   0.357  -0.816   0.600  -0.579  -0.265  -0.149
   -0.721  -1.272  -0.410   1.169  -0.018  -1.467  -0.077  -0.049   0.159   0.584
    2.220  -0.410   0.755  -0.618  -0.698   0.069  -0.674  -0.548  -0.019   0.667

    1.750  -0.588
    1.595   0.636  -0.738  -0.924  -0.283   0.003   0.457  -0.681  -0.159  -0.453