
This full-field turbulence file was generated by TurbSim (v1.40, 12-Sep-2008) on 27-May-2021 at 14:31:36.

 | u-comp |  Y  x  Z  | Grid Resolution (Y x Z) | Time-step | Hub Elev | Mean U |
            10    10     15.556     15.556          0.050      89.60     13.00

 Z Coordinates (m):
  -70.000 -54.444 -38.889 -23.333  -7.778   7.778  23.333  38.889  54.444  70.000

 Y Coordinates (m):
  -70.000 -54.444 -38.889 -23.333  -7.778   7.778  23.333  38.889  54.444  70.000

    0.000  10.761
   16.921  18.161  13.997  15.085  14.766  13.797  14.511  13.842  14.334  14.553
   15.768  14.719  14.066  15.970  14.834  13.686  11.244  13.228  12.008  12.267
   14.949  16.520  16.631  16.332  14.433  14.299  13.735  13.299  13.822  14.166
   13.200  15.005  13.488  12.432  15.593  15.519  15.590  12.934  18.364  14.896
   13.438  13.359  14.018  11.703  14.124  16.256  15.760  12.812  14.082  13.172
   13.100  13.798  15.107  11.615   9.538  11.241  10.829  11.541  12.457  10.885
    9.532   9.112  12.242  11.210  12.793  11.267  11.475  12.264  10.246  12.341
   10.708   6.114   8.626   9.544  10.653  10.258   9.315   9.516  12.726  14.459
    6.753   5.759   4.938  10.010  10.293  10.824  10.270  11.536  13.632  12.059
    6.085   5.464   7.870   9.133  11.777  10.954  11.311  12.169  12.949  10.888

    0.050  10.982
   16.451  18.022  14.553  15.875  14.256  14.273  14.520  13.553  13.788  14.918
   15.173  14.457  14.197  16.457  14.524  14.568  11.659  13.453  11.490  11.858
   15.322  16.920  16.086  15.812  14.545  14.713  13.627  14.433  13.975  13.314
   13.621  15.452  13.551  12.915  15.558  16.312  16.076  12.619  17.753  14.058
   13.919  13.293  14.085  12.179  14.469  16.235  15.605  13.133  13.969  12.652
   13.364  14.207  15.008  11.659   8.563  11.210  11.692  11.236  12.944  10.631
    9.519   9.120  12.505  10.384  12.725  11.051  11.638  11.668  10.318  12.806
   10.980   5.313   8.320  10.000  11.120  10.416   9.535   9.369  12.699  14.826
    6.701   5.565   4.526  10.151   9.883  10.940  10.100  11.225  13.997  11.709
    6.400   5.816   7.713   9.346  11.746  10.718  11.095  11.910  12.775  11.341

    0.100  11.579
   16.520  17.528  14.912  16.159  14.471  14.600  14.378  13.472  13.760  15.408
   15.247  15.401  14.703  15.809  14.380  15.093  11.494  13.092  11.603  11.405
   16.072  17.013  15.637  15.434  14.010  14.644  14.205  13.959  13.772  13.430
   14.137  15.238  13.349  13.269  15.393  16.656  16.170  12.627  17.826  13.952
   14.303  13.753  14.817  11.872  14.400  16.650  15.155  13.877  13.969  12.897
   13.242  14.069  15.274  11.538   8.750  10.594  11.990  11.444  12.528  11.037
    9.860   9.518  12.657   9.326  12.504  11.576  12.297  11.546  10.925  12.355
   10.360   6.094   8.481   9.785  11.584  10.135   9.203   8.971  12.482  14.990
    6.505   6.455   5.013  10.428   9.841  10.700  10.104  11.017  14.317  12.104
    6.150   5.922   7.166   8.659  11.428   9.861  11.064  11.681  12.800  11.323

    0.150  11.552
   16.371  17.489  14.735  16.241  15.281  14.303  14.016  12.795  12.958  15.383
   15.231  15.857  14.853  15.976  13.965  14.522  11.763  12.697  11.539  11.414
   15.810  16.153  15.991  15.954  13.287  14.883  13.630  13.723  14.373  13.160
   13.155  15.237  14.241  12.506  15.005  17.005  15.908  12.960  17.832  13.863
   13.988  13.376  14.619  12.865  14.583  16.597  15.108  13.924  14.153  12.725
   13.277  13.345  15.648  11.839   8.853  11.501  12.169  11.912  13.175  11.440
   10.084   9.389  12.393   8.652  12.461  12.020  12.933  12.007  11.539  12.937
   10.528   7.226   8.515   9.830  12.564  10.401   8.990   9.266  13.188  14.800
    5.942   6.237   5.288  10.575  10.191  10.331  10.367  11.009  14.301  12.421
    6.399   6.345   6.993   8.543  10.829  10.615  11.651  11.974  13.478  11.768

    0.200  12.277
   16.218  17.862  15.129  16.247  15.117  13.459  13.381  12.853  12.748  15.401
   15.553  17.329  14.327  16.012  13.744  15.128  12.337  12.743  11.156  11.949
   16.339  16.479  16.211  16.041  13.637  15.318  13.381  13.720  14.600  12.967
   12.547  15.076  14.413  12.697  15.316  16.482  15.826  13.007  18.240  14.309
   13.034  13.355  14.308  12.933  13.998  16.152  14.219  14.033  13.673  12.321
   13.195  12.213  15.461  11.592   8.794  11.894  12.583  11.805  13.253  11.769
   10.147   9.160  12.732   8.787  12.121  12.682  12.915  12.523  11.678  13.120
   10.849   7.813   8.370   9.782  11.848  10.473   8.647   8.821  12.982  14.959
    7.254   5.742   4.996   9.906  10.829  10.795   9.838  11.444  15.016  12.365
    5.770   6.204   7.074   8.207  10.705  10.350  11.012  11.907  13.200  10.908

    0.250  12.210
   15.958  16.965  15.660  17.569  15.324  13.296  12.951  12.760  13.516  15.385
   15.228  17.682  14.683  15.338  13.731  15.291  11.958  12.725  11.087  12.262
   16.051  16.908  16.285  16.233  13.681  14.260  13.947  13.784  13.560  12.763
   12.372  15.438  14.633  13.502  15.923  16.146  15.495  14.011  18.290  13.349
   13.682  13.149  14.693  13.072  13.176  16.178  14.387  13.034  13.412  12.268
   13.907  12.370  14.821  11.179   9.270  12.381  12.598  11.954  12.899  12.361
    9.830   8.963  12.472   9.333  11.515  13.313  13.517  12.263  12.048  12.611
   10.991   7.951   8.248  10.816  11.092  10.664   9.475   8.929  13.119  14.571
    7.153   6.247   4.532   9.796  10.266   9.979   9.897  11.666  14.759  12.237
    5.666   6.471   7.511   8.046  10.265  10.580  11.130  12.473  13.257  10.679

    0.300  11.763
   15.594  16.919  15.187  17.554  15.029  14.011  12.748  13.135  12.677  15.481
   15.419  17.599  14.749  15.910  13.061  15.045  12.175  12.965  11.998  12.407
   16.016  16.614  16.111  15.925  14.061  13.994  14.061  13.729  13.146  13.081
   13.037  15.021  14.370  13.567  15.717  16.556  14.863  14.269  18.092  12.945
   14.074  13.281  15.381  13.598  13.642  15.906  15.104  13.089  13.305  12.467
   13.572  12.702  14.732  11.382   9.798  12.596  12.747  12.254  12.839  12.111
   10.156   7.639  12.894   9.256  10.976  13.595  13.111  12.359  11.999  11.955
   10.937   7.771   8.855  11.156  11.181  10.331   9.619   9.188  12.987  13.843
    7.162   6.742   4.277   9.645  10.504  10.225   9.982  11.832  14.640  12.169
    5.747   6.524   7.922   8.045  10.245  10.836  11.207  12.603  12.938  11.016

    0.350  11.592
   15.734  16.696  15.639  16.900  15.231  14.304  12.437  13.082  13.696  15.995
   15.923  18.451  13.762  16.076  14.005  15.201  12.748  13.057  11.644  12.626
   16.405  16.481  15.696  15.304  14.149  13.845  14.164  13.996  13.435  12.342
   13.723  14.984  14.554  13.390  15.965  16.923  15.029  14.438  18.210  12.964
   14.005  13.703  15.503  13.989  14.435  16.535  15.191  13.310  12.845  11.939
   13.409  13.863  14.724  11.942   9.308  11.971  12.683  12.418  12.902  11.974
    9.996   7.658  12.900   9.297  11.475  13.506  13.146  12.939  12.091  11.545
   10.178   7.397   9.155  10.355  10.866   9.130   9.153   9.223  12.972  13.644
    7.670   6.173   4.311   8.845  10.745  10.941  10.050  11.294  14.761  12.502
    5.423   6.663   8.153   7.694  10.098  11.197  10.865  12.690  12.969  10.911

    0.400  12.166
   16.242  16.823  15.139  17.750  15.127  14.220  13.025  13.301  14.222  16.108
   16.113  17.861  13.838  16.653  14.057  14.857  12.301  12.796  12.011  12.564
   15.929  16.156  16.066  15.411  14.123  13.602  14.274  14.723  13.453  12.295
   13.820  14.593  13.956  13.466  15.479  16.237  15.737  14.060  17.935  13.372
   13.652  14.012  15.253  14.589  13.823  15.842  15.209  13.408  12.623  11.828
   14.149  13.550  15.037  11.623   8.086  11.388  11.925  12.497  12.741  11.800
   10.290   8.206  13.111   9.837  10.932  12.730  13.033  12.940  11.775  11.065
   10.175   7.480   9.290  11.046  10.324   9.371   9.806   9.399  12.521  13.960
    8.050   6.344   4.059   8.690  10.126  10.893   9.789  11.714  13.811  12.513
    5.572   6.160   8.182   7.702  10.448  12.291  11.556  12.837  13.119  11.200

    0.450  12.023
   15.899  16.282  15.112  16.980  15.857  14.359  12.683  12.981  13.998  15.866
   15.900  18.373  14.428  16.697  14.024  14.857  12.155  12.884  12.076  12.323
   15.805  16.185  15.860  15.421  13.887  13.156  14.252  14.284  13.427  13.488
   13.738  13.644  13.672  13.540  15.935  15.117  15.242  14.604  17.722  13.294
   14.234  14.868  15.109  14.857  13.986  15.998  14.859  13.725  13.309  11.605
   14.123  13.180  14.995  11.085   8.071  11.422  12.273  13.015  12.026  11.826
   10.616   8.710  12.976   9.640  11.259  12.497  12.674  13.338  11.338  11.750
    9.539   7.276   8.776  11.187  10.748   9.767   9.938   9.523  11.947  14.479
    8.406   5.869   4.287   8.523  10.643  10.111  10.225  11.384  13.219  12.531
    5.813   5.427   7.671   7.951  10.451  11.858  12.223  12.240  12.930  10.887

    0.500  11.745
   15.832  16.915  14.942  16.848  15.699  13.817  13.158  13.170  13.828  15.729
   15.541  17.702  14.615  16.388  13.853  14.796  11.831  12.591  12.076  12.157
   15.525  16.249  15.873  15.875  13.728  13.533  14.094  14.400  13.771  14.337
   13.452  13.831  14.743  13.483  16.055  16.063  14.843  15.083  17.402  13.141
   13.881  14.387  15.256  14.508  14.176  15.119  16.103  13.811  13.939  12.174
   14.186  12.860  13.829  10.707   8.392  10.703  12.491  13.491  12.331  12.239
   10.813   8.721  12.583  10.317  11.026  12.087  13.391  13.186  10.902  12.443
    9.438   7.574   8.215  10.486  11.505  10.395  10.114   8.897  11.979  13.237
    8.306   6.355   4.897   8.839  10.524  10.082   9.871  11.441  13.030  12.775
    5.167   5.766   7.207   7.810  10.621  11.617  11.591  12.366  12.936  10.888

    0.550  11.540
   16.292  16.687  15.095  16.556  15.060  13.454  12.932  13.651  14.218  15.523
   15.673  17.702  14.605  16.090  13.966  14.420  11.899  13.533  11.869  12.235
   15.396  15.897  16.302  16.409  13.938  14.226  14.668  15.017  13.708  14.054
   13.470  13.153  14.828  13.352  15.973  15.971  14.531  14.744  16.887  12.978
   14.384  14.180  14.310  14.459  14.351  14.634  17.154  13.950  13.065  12.028
   14.584  12.756  14.243  10.280   8.133  10.696  12.188  13.535  12.235  11.663
   10.925   8.519  12.082  10.189  11.241  12.291  13.457  12.061  11.202  12.375
   10.239   7.597   8.232   9.724  10.732  10.197  10.185   8.296  12.059  13.124
    7.907   6.059   4.741   9.280   9.948  10.762   9.618  11.400  12.191  12.864
    5.756   5.634   7.839   7.545  11.054  11.710  11.610  12.108  12.617  10.932

    0.600  11.994
   16.604  16.254  16.254  15.615  15.207  14.101  12.848  14.074  14.438  15.437
   15.463  18.125  15.075  16.394  14.315  13.985  12.364  13.261  11.961  11.776
   16.233  15.432  16.321  16.338  14.228  14.674  13.556  15.260  14.208  13.708
   13.795  12.767  14.423  13.379  16.157  16.169  14.458  14.402  17.418  13.148
   14.716  13.871  14.461  15.019  14.838  14.869  16.414  14.018  12.562  12.184
   13.814  12.256  14.267  10.618   7.850  11.053  12.355  14.081  12.262  11.664
   11.105   8.608  11.800   9.433  11.399  11.782  13.642  11.787  11.495  12.741
   10.316   7.043   7.401   9.586  10.633   9.708  10.691   8.946  12.845  12.769
    7.409   5.636   4.133   8.915   9.809  10.783   9.677  11.275  11.958  14.336
    5.450   5.503   7.813   7.749  11.313  11.250  11.130  11.596  11.905  11.367

    0.650  11.276
   16.272  16.145  16.949  15.494  15.407  14.631  13.000  14.075  14.309  15.612
   14.633  18.270  15.039  16.182  14.153  13.047  12.609  12.766  12.137  11.886
   16.745  15.476  16.758  16.260  14.445  14.455  13.289  15.081  14.435  13.343
   13.909  13.051  13.287  13.500  16.274  16.330  14.911  14.998  16.870  13.579
   13.629  14.098  14.838  14.769  14.837  14.430  16.008  14.579  12.584  12.096
   13.821  12.661  13.702  11.612   8.089  11.979  12.534  13.938  12.330  11.707
   10.816   8.893  11.278   9.341  11.498  12.122  13.252  12.410  11.940  13.408
   10.024   7.137   8.234   9.201  10.244  10.212  10.017   9.838  13.425  12.695
    8.159   6.008   4.391   8.497   9.537  10.454  11.011  11.736  11.899  15.274
    5.445   4.680   7.709   7.526  11.195  11.402  10.951  11.566  11.585  11.968

    0.700  10.771
   16.147  15.122  16.328  15.771  15.616  15.106  13.458  13.898  13.782  15.539
   14.855  18.529  15.246  16.096  14.070  13.021  12.655  13.027  12.219  12.112
   16.999  15.446  16.693  15.946  14.694  14.945  13.761  15.153  14.161  13.747
   14.126  13.136  13.561  14.097  15.834  15.870  14.695  15.366  16.712  13.915
   13.581  13.913  14.511  14.865  15.118  14.176  15.258  14.704  11.618  12.418
   13.550  12.560  13.270  12.230   8.081  12.777  12.651  13.595  11.984  11.783
   10.662   9.274  11.313   9.140  12.404  12.164  13.060  13.056  11.888  13.174
   10.304   7.399   7.876   9.528  10.391  10.261   9.700   9.992  13.551  13.063
    7.553   5.819   4.680   8.665   9.311  10.747  10.582  12.560  12.328  15.175
    6.572   5.130   7.505   7.872  11.514  11.622  11.096  11.348  10.977  11.643

    0.750  10.476
   16.467  15.364  16.081  16.134  16.145  15.147  14.454  14.240  13.394  14.832
   14.973  17.762  15.128  16.233  13.725  13.909  12.790  13.026  12.310  11.715
   16.308  15.670  17.170  15.836  14.279  14.822  13.925  15.440  13.928  13.539
   14.874  14.119  13.203  14.377  15.521  15.835  15.506  15.670  16.184  13.713
   13.970  13.469  14.517  14.457  15.117  14.287  15.074  14.060  11.179  11.679
   13.532  12.659  12.848  12.011   8.104  12.211  11.812  13.554  12.546  11.753
    9.863   9.266  11.227   8.734  12.916  11.311  12.989  13.597  11.800  12.970
    9.528   7.401   7.833   9.667  10.530  10.091  10.120  10.821  13.590  12.709
    6.930   6.293   4.744   8.998   8.899  10.722  10.512  12.117  12.725  15.257
    7.004   5.067   6.775   7.819  11.386  12.041  11.483  11.754  10.917  12.742

    0.800  10.592
   16.433  16.050  16.638  16.410  15.859  15.093  13.396  14.748  13.370  14.609
   15.223  17.659  15.479  15.717  13.723  13.270  12.769  12.895  12.759  12.663
   16.465  16.334  16.844  15.877  14.789  13.774  14.043  16.752  13.839  14.141
   14.688  14.005  13.634  14.366  16.150  15.481  15.375  15.401  16.131  13.762
   13.976  13.746  14.738  14.203  14.994  14.283  15.566  14.175  11.288  12.130
   13.576  13.150  12.537  11.757   8.190  11.560  11.576  13.567  12.857  11.823
    9.349   9.043  10.545   8.321  12.882  11.876  13.513  13.034  11.907  13.276
   10.266   7.270   7.195  10.076  11.028   9.950  10.506  10.610  13.457  12.723
    6.320   6.319   5.191   8.913   8.592  10.875  10.043  12.414  13.210  15.600
    6.851   5.138   6.697   7.475  11.781  11.954  12.583  10.956  11.888  12.465

    0.850  10.617
   16.265  15.614  16.750  16.744  15.144  15.284  13.279  13.985  12.828  15.413
   15.211  17.287  15.036  16.076  14.479  13.333  13.130  12.804  13.288  12.932
   16.563  15.987  17.022  15.999  15.174  13.712  14.172  16.419  13.822  13.836
   14.262  14.057  13.773  14.851  15.810  15.663  15.261  15.585  16.382  13.899
   14.322  13.242  15.022  14.219  14.358  14.397  14.798  14.695  11.531  12.940
   13.495  13.236  12.145  11.448   9.064  11.467  11.684  13.825  12.448  11.668
    9.868   8.798   9.816   8.289  13.033  12.056  12.886  13.021  12.326  12.982
   10.395   7.730   7.598  10.412  10.604   9.694  10.279  10.999  13.152  13.271
    6.380   6.397   4.908   9.004   8.506  11.171  10.026  12.091  12.808  15.716
    6.904   5.011   6.609   7.570  11.163  13.015  11.647  11.258  11.728  12.908

    0.900  11.218
   16.285  15.429  17.037  16.164  15.385  14.881  13.854  13.749  13.243  15.145
   15.581  17.013  15.240  16.403  15.158  13.462  13.607  12.583  14.020  12.664
   16.553  15.935  18.179  16.003  15.321  14.141  14.746  16.528  13.332  13.679
   14.302  14.049  13.458  15.961  16.553  16.322  16.371  14.904  16.203  13.436
   13.332  13.894  15.315  13.769  14.176  14.237  14.296  14.568  11.429  12.974
   13.076  13.019  12.597  11.883   9.544  11.052  12.100  13.949  11.987  12.152
   10.357   8.867   9.422   8.818  12.358  12.036  12.939  12.811  12.269  12.270
   10.161   7.888   8.096  10.474  10.534   8.936   9.800  11.676  13.114  12.573
    7.561   6.277   5.247   8.569   9.109  11.580   9.343  12.169  12.862  15.895
    6.483   5.622   6.964   7.764  11.230  12.768  11.844  10.819  11.482  12.578

    0.950  11.123
   15.789  16.181  16.917  15.984  15.874  14.774  13.493  13.541  13.817  14.819
   14.827  16.942  14.794  16.674  15.310  14.060  13.528  12.006  13.972  11.726
   16.515  15.936  18.719  15.580  15.678  13.883  14.188  15.733  13.369  14.825
   13.209  13.983  12.827  16.202  16.078  15.775  16.581  15.178  16.852  13.280
   13.530  14.287  14.642  13.247  14.252  14.078  13.983  14.285  11.526  13.262
   13.524  12.961  12.013  12.603   8.953  11.594  11.980  13.670  12.145  12.313
   10.361   9.688  10.116   9.024  13.086  11.630  13.015  12.453  12.236  12.205
   10.330   7.790   8.910  10.666  11.111   9.184  10.183  11.442  12.683  12.280
    8.559   6.146   6.355   9.066   8.790  11.997   9.248  12.681  12.949  16.074
    6.448   5.198   7.427   8.057  10.578  12.234  11.312  11.108  11.874  12.541

    1.000  11.410
   15.136  16.287  17.010  16.748  15.841  14.652  13.272  13.713  13.366  14.707
   14.723  17.567  15.091  17.035  15.720  14.700  13.157  10.827  13.981  12.187
   15.812  15.145  18.538  15.904  15.823  14.310  13.894  15.964  13.157  15.068
   13.292  13.928  12.374  15.276  16.277  15.453  16.708  14.627  16.623  13.434
   13.744  14.965  14.723  13.816  14.494  14.780  14.224  14.865  10.857  13.384
   13.405  13.257  12.007  12.603   8.771  11.849  11.447  13.566  12.971  12.435
   10.247  10.250  10.698   8.620  12.804  11.482  12.861  12.952  12.306  11.934
   10.006   8.000   9.216  10.690  10.442   9.762  10.718  11.170  13.449  11.831
    9.118   6.371   6.809   9.592   8.772  11.961  10.224  12.638  13.301  16.000
    5.945   5.858   8.133   7.736  10.995  12.680  11.226  10.492  11.743  12.307

    1.050  10.956
   15.411  16.599  17.156  16.955  15.836  15.441  13.137  14.115  13.872  14.673
   15.075  17.550  15.162  17.589  15.916  15.149  13.434  10.242  14.408  11.910
   15.584  15.801  18.794  15.787  15.598  14.058  13.494  15.756  13.597  14.365
   13.744  13.674  12.720  15.296  15.690  15.447  16.391  14.641  16.554  13.530
   13.243  14.431  14.878  14.634  14.460  15.416  15.024  13.786  11.070  13.833
   13.120  13.437  12.802  13.146   9.292  11.565  11.062  14.056  13.023  12.085
   10.055   9.056  10.047   8.971  12.361  11.176  13.078  12.643  12.421  12.070
   10.535   8.160   9.989   9.664   9.965   9.733  10.383  10.884  13.726  12.107
    9.495   6.740   6.781   9.387   8.194  12.051  10.514  12.675  13.746  16.261
    6.247   5.798   8.223   7.845  10.326  12.826  10.579  10.406  11.357  12.040

    1.100  10.494
   15.991  16.545  16.467  16.757  16.316  15.583  13.045  13.913  13.358  14.110
   15.248  17.231  16.017  17.477  15.300  15.265  13.998  11.132  14.423  11.702
   15.460  15.987  19.606  16.465  15.583  13.935  13.632  15.974  13.480  14.334
   14.073  14.220  12.777  15.054  14.687  15.232  15.840  15.327  16.228  13.495
   13.607  14.346  15.104  14.340  14.208  15.601  15.193  14.430  11.522  13.668
   12.953  13.937  12.729  12.559  10.430  12.149  10.636  14.233  12.779  12.401
   10.004   9.576  10.716   9.791  12.667  11.142  12.907  12.655  11.686  11.952
   10.722   7.876  10.938   9.896  10.525   9.930  10.211  10.908  12.667  11.972
    9.648   6.421   7.117   8.894   8.008  11.318  10.622  12.946  14.091  16.059
    6.049   5.465   7.894   7.640  10.380  12.977  11.081  10.874  11.370  12.419

    1.150  10.543
   16.582  17.027  16.324  16.820  16.391  15.420  14.186  14.345  13.411  14.034
   15.404  17.974  15.711  17.100  15.362  14.579  13.494  11.155  14.822  12.223
   15.564  15.613  19.890  16.111  15.390  14.465  14.147  15.974  13.510  13.864
   14.473  13.996  12.879  14.621  14.829  15.656  16.302  15.206  15.981  13.024
   13.532  14.745  15.485  12.970  13.896  15.684  15.861  14.807  11.623  13.653
   12.713  13.848  12.323  12.660  10.277  12.527  11.772  14.350  12.360  12.628
    9.868  10.452  11.518  10.554  12.690  10.802  12.657  12.919  11.850  12.323
   10.423   8.000  11.176   9.841  11.006   9.559  10.227  11.216  12.303  12.491
    9.569   6.876   7.447   9.375   9.019  11.607  10.102  12.786  14.757  16.206
    5.502   5.856   8.534   7.976  10.591  12.369  10.750  10.295  11.312  12.332

    1.200  10.579
   15.827  17.068  15.721  16.517  15.406  15.278  14.488  14.205  13.724  13.809
   15.023  17.990  16.013  16.628  15.587  14.685  13.416  11.326  15.038  12.324
   16.059  15.657  20.293  15.893  15.094  14.430  13.638  15.878  12.408  13.604
   14.591  14.537  12.332  14.832  14.911  15.214  15.773  14.954  16.075  12.887
   13.295  14.559  14.811  12.999  13.975  15.894  15.970  14.734  12.185  13.187
   12.943  14.170  11.901  12.515  10.419  12.431  11.955  14.362  12.081  12.923
   10.130  10.063  11.473  10.027  12.044  10.460  12.157  12.805  12.430  12.044
   10.753   8.008  11.052   9.590  11.235   9.811  10.874  11.322  12.060  12.650
    9.603   7.504   7.827   8.915   9.305  11.715  10.021  12.719  14.739  15.953
    5.373   5.761   8.246   7.432  10.078  12.520  10.697  10.448  10.949  13.019

    1.250  11.377
   16.015  15.775  15.291  16.544  15.891  15.005  14.148  13.886  13.586  14.450
   14.325  17.538  16.640  16.218  15.360  14.486  13.671  10.651  14.218  11.894
   16.148  15.473  19.357  15.238  14.969  14.415  13.547  15.979  12.894  13.095
   14.692  13.882  12.884  13.989  14.700  15.324  16.124  15.274  16.455  12.848
   13.472  14.742  15.108  12.883  14.350  16.339  16.350  13.813  13.015  12.663
   11.769  14.923  11.743  12.438  10.240  13.344  11.440  14.284  11.848  13.013
   10.275  10.149  11.264   9.032  12.056  10.581  12.050  13.420  12.085  12.793
   10.068   8.482  10.725  10.389  11.787   9.553  10.463  11.473  11.551  12.989
    9.092   7.326   7.765   9.039   9.230  11.623  10.294  13.091  14.850  15.901
    5.736   5.932   8.520   7.101   9.577  11.598  11.217  10.033   9.956  13.152

    1.300  11.518
   16.447  15.243  14.408  16.452  16.542  14.057  14.414  13.696  13.757  13.663
   14.871  17.345  17.013  16.026  14.752  14.003  13.286  10.762  14.330  11.372
   15.618  15.134  18.499  15.227  14.175  14.769  13.544  16.014  12.918  13.339
   14.292  14.115  12.880  13.984  14.652  15.412  15.890  14.683  17.485  12.720
   13.140  14.480  14.888  12.926  14.274  16.189  16.032  14.001  12.659  12.829
   11.370  14.389  12.037  11.861  10.266  13.306  11.436  13.801  12.165  12.666
    9.721  10.313  11.291   9.462  12.114  11.150  12.193  13.624  12.137  13.108
    9.969   8.459  10.483  10.248  11.831   8.987  10.494  11.393  11.522  13.569
    9.295   7.506   8.193   9.301   9.379  11.501  10.656  12.473  14.414  15.891
    5.298   5.082   8.821   7.066   9.952  11.151  11.603  10.750  10.262  13.822

    1.350  10.919
   16.615  14.995  14.643  16.378  16.484  13.986  14.255  14.278  13.649  13.316
   14.989  17.806  16.790  16.440  14.209  13.816  13.293  11.427  13.840  11.210
   14.986  15.159  18.306  15.548  13.950  14.806  13.345  15.611  13.261  13.557
   13.340  14.061  12.978  14.393  14.914  14.813  16.248  14.896  16.633  12.617
   13.078  14.259  14.715  13.199  14.228  16.119  15.540  13.759  13.236  13.010
   12.101  14.712  12.472  11.259   9.387  13.154  11.593  13.798  12.035  12.225
    9.601  10.974  11.156   9.374  11.840  10.753  11.954  13.120  11.563  12.361
    9.625   8.370  10.625   9.958  12.171   9.011  10.672  12.046  11.604  13.511
    9.313   7.745   8.291   9.193  10.377  11.293  10.153  12.416  13.992  15.409
    4.786   5.309   8.651   6.954   9.836  11.076  12.326  11.862  10.525  13.985

    1.400  10.887
   16.946  15.163  13.820  15.920  16.019  14.125  14.340  14.742  14.150  13.710
   15.784  18.299  16.413  16.435  14.051  13.066  13.046  10.862  14.232  11.815
   15.391  15.062  18.525  15.894  14.862  14.779  12.963  15.569  12.800  12.565
   13.400  14.188  12.720  14.323  14.750  15.180  16.065  14.777  16.552  12.535
   13.381  14.297  14.884  13.493  13.583  16.034  15.309  14.053  13.169  12.944
   11.675  15.377  12.054  10.740   9.242  12.997  11.714  13.439  11.801  12.172
    9.681  11.463  11.253   9.505  11.401  10.429  12.325  12.694  11.450  12.157
    9.572   7.529  10.594   9.873  12.094   8.573  10.692  11.413  11.448  13.348
    8.896   8.745   8.858   9.293  10.227  11.025   9.989  12.606  13.895  15.283
    5.297   4.873   7.847   7.133   9.924  11.040  12.882  11.696  10.645  13.474

    1.450  10.283
   16.318  15.653  14.706  16.717  16.585  14.032  14.126  15.096  13.747  13.729
   16.244  17.903  16.201  16.282  14.192  12.559  13.258  10.982  14.030  11.419
   15.238  15.123  17.715  15.939  15.180  15.154  13.144  15.494  12.681  12.255
   13.796  13.945  12.698  14.106  14.822  15.060  15.210  14.481  15.783  12.667
   13.167  14.878  15.796  14.107  13.557  16.327  15.172  13.875  13.703  14.068
   11.299  14.923  11.905  10.979   9.507  12.698  11.190  13.533  11.918  11.731
    9.637  11.847  11.742  10.099  11.087  10.495  12.620  12.875  11.692  12.202
    9.125   7.905  10.834   9.781  11.582   8.544  10.494  11.607  11.847  13.708
    9.288   8.799   9.252   9.244   9.564  10.743   9.748  11.840  13.879  15.291
    5.677   4.723   7.215   6.978  10.149  11.989  12.799  11.342  11.103  13.618

    1.500  10.360
   15.434  15.792  14.755  17.202  16.829  13.173  14.229  15.070  13.459  14.385
   16.005  17.817  16.044  16.319  14.273  12.382  12.157  10.308  14.198  11.538
   15.349  15.232  17.494  16.247  15.184  16.385  13.026  14.819  12.167  12.423
   13.299  14.318  13.240  13.436  15.197  14.363  14.905  14.697  15.348  12.823
   13.085  14.979  15.650  13.575  14.300  16.397  15.770  14.238  13.750  13.761
   12.128  15.656  12.650  11.153   9.785  13.349  11.700  13.089  11.986  11.707
    9.932  11.866  11.428  10.397  10.870  10.127  12.357  12.898  12.470  11.669
    9.025   7.643  11.032  10.254  11.596   8.513  10.485  12.245  12.096  13.482
    8.998   8.944   8.456   9.498   9.379  11.780   9.754  11.580  13.801  14.940
    5.376   5.290   7.461   6.903  10.176  11.975  13.058  10.592  11.046  13.595

    1.550  10.658
   14.781  16.004  14.526  17.306  16.498  13.389  14.583  15.019  13.989  15.046
   15.742  18.021  16.355  16.692  14.997  11.886  11.924   9.190  13.909  11.179
   16.075  14.817  17.505  17.051  15.418  16.043  13.320  14.751  12.113  12.848
   13.853  14.604  13.532  14.307  14.624  14.265  14.320  14.937  14.947  13.150
   12.976  15.331  15.614  13.513  14.544  15.362  15.750  14.015  13.232  13.056
   12.908  15.337  12.759  11.360  10.089  13.539  11.493  13.402  12.468  11.597
   10.242  11.428  10.334   9.965  10.639   9.471  11.338  13.235  12.561  12.215
    9.229   7.190  11.457  10.500  11.176   9.123   9.828  12.481  12.640  13.397
    9.452   8.768   8.339  10.346   8.703  12.429   9.939  12.463  13.445  15.307
    5.521   5.314   7.247   7.628   9.873  10.746  12.699  10.842  11.394  13.532

    1.600  11.120
   14.814  16.269  15.072  16.685  16.745  13.646  14.834  14.472  13.678  15.143
   15.097  16.921  16.549  15.993  15.132  11.460  11.551   9.713  13.488  10.925
   15.406  14.139  17.354  17.656  15.818  15.533  13.088  15.056  12.824  12.377
   14.404  15.022  13.235  14.752  15.310  14.963  14.621  15.656  14.767  12.893
   12.889  15.501  15.340  14.136  14.671  14.588  16.161  14.134  14.268  14.224
   12.603  14.668  13.153  11.486  10.088  13.587  11.458  12.762  12.497  11.273
   10.749  11.108  10.238   9.198  11.702   9.424  12.229  12.722  12.534  11.759
    8.712   7.358  11.908  10.863  11.184   9.859   9.791  11.557  11.859  13.768
    9.253   9.497   8.843  10.334   8.483  12.640   9.744  12.446  13.271  15.234
    6.016   6.056   8.046   7.722   9.694  10.782  12.248  11.123  11.285  14.261

    1.650  10.974
   15.094  16.347  15.489  17.034  16.546  14.359  14.201  13.883  13.764  15.360
   14.796  17.695  16.609  15.602  15.559  12.163  11.169  10.689  13.544  10.346
   15.376  14.478  17.591  17.011  16.338  15.345  13.127  14.749  11.966  11.985
   13.701  15.248  13.508  15.481  15.968  15.740  14.594  15.478  16.222  12.394
   12.944  15.236  14.580  13.591  14.662  14.696  15.595  13.955  13.963  14.644
   12.998  14.147  13.243  11.698   9.969  13.527  12.236  13.468  12.461  10.798
   10.203  10.369  10.296   9.294  11.948   9.630  12.438  12.320  12.081  11.170
    9.414   7.087  11.662  10.869  11.285  10.050  10.929  12.011  11.123  13.814
    8.865   9.116   8.020  10.686   8.851  12.739  10.174  11.647  13.050  14.967
    6.267   5.900   9.184   8.492   9.707  10.758  12.148  10.687  11.168  14.092

    1.700  10.123
   15.269  16.305  15.994  17.450  16.242  13.924  14.272  13.847  13.841  15.156
   15.141  17.815  15.575  15.778  15.879  12.993  11.769  10.734  13.194  10.222
   15.529  14.873  17.261  16.880  16.123  14.756  13.793  15.485  11.426  11.748
   13.659  15.288  13.052  15.264  16.194  15.644  14.427  15.597  16.133  12.309
   13.252  14.937  14.029  13.832  14.233  14.651  14.611  13.575  13.331  15.028
   12.516  13.126  12.699  12.379   9.842  13.357  12.764  13.702  12.770  10.590
   10.077  10.181  10.143   9.365  11.502  10.041  12.306  11.966  12.151  11.176
    9.581   7.055  11.342  10.800  10.988   9.190  11.064  12.385  11.490  13.539
    9.234   9.198   8.118  10.479   9.179  12.334   9.771  12.359  12.244  14.840
    5.931   6.043   9.082   8.819   9.652   9.928  12.341  10.941  11.049  13.925

    1.750  10.235
   15.374  16.755  16.239  17.722  16.524  14.583  14.640  14.152  13.931  15.147