
This full-field turbulence file was generated by TurbSim (v1.40, 12-Sep-2008) on 27-May-2021 at 14:31:30.

 | u-comp |  Y  x  Z  | Grid Resolution (Y x Z) | Time-step | Hub Elev | Mean U |
            10    10     15.556     15.556          0.050      89.60     11.00

 Z Coordinates (m):
  -70.000 -54.444 -38.889 -23.333  -7.778   7.778  23.333  38.889  54.444  70.000

 Y Coordinates (m):
  -70.000 -54.444 -38.889 -23.333  -7.778   7.778  23.333  38.889  54.444  70.000

    0.000   9.273
   10.861   8.517   7.577  11.349   9.824   9.888  10.440  12.648  12.873  10.770
    8.592   9.029  11.059   9.189  11.210   8.766   9.698  11.955  14.168  11.514
    8.510   8.137   8.171   9.360   9.958   9.987  10.008   9.715  10.405  12.789
    6.968   8.210   9.486   6.820   8.467   9.646  10.180   9.165  11.687  10.824
    6.917   8.529   9.281   8.170   7.362   9.134   8.084  10.032  11.772   9.231
    6.444   7.891   9.417   7.643   9.513   8.705   9.225   9.019  11.521  10.615
    8.292   7.816   9.352  10.645   8.909  11.049   9.370   9.683   9.266   9.139
    7.291   6.076   9.327   8.017   7.104   8.437   9.412   9.844   9.057  10.263
    7.678   5.776   6.866   8.805   7.462   9.139   8.759   8.712   8.139  10.461
    5.791   7.002   6.054   7.818   8.593   7.216   8.558   8.408   8.299  10.263

    0.050   9.273
   10.391   8.790   8.183  11.199  10.044   9.945  10.338  12.345  13.448  11.072
    8.533   9.237  11.001   9.262  11.544   8.884   9.854  11.926  13.770  11.360
    8.379   7.904   7.977   9.256   9.927  10.012  10.104   9.873  10.519  12.467
    6.777   8.561   9.744   6.633   8.849   9.758  10.565   9.108  11.288  10.816
    7.114   8.540   9.075   8.482   7.489   8.783   8.376   9.933  11.607   9.098
    6.405   8.040   9.213   7.723   9.460   9.491   9.625   9.063  11.920  10.475
    8.106   7.730   9.270  10.483   9.270  11.147   9.324   9.647   9.249   9.321
    7.602   5.392   9.243   8.252   7.232   8.638   9.740   9.890   8.904  10.441
    7.568   5.650   6.598   8.840   7.163   9.290   8.807   8.483   8.330  10.021
    6.029   7.175   5.959   7.911   8.526   7.034   8.342   8.179   8.251  10.612

    0.100   9.075
   10.318   8.733   7.955  11.856   9.934   9.710  10.201  11.917  13.394  11.141
    8.906   8.856  10.816   9.388  11.011   9.052   9.760  12.084  13.849  11.425
    8.117   8.451   8.478   9.326   9.981  10.208   9.635  10.282  10.844  12.644
    6.723   8.570   9.815   6.817   8.454   9.742  11.054   9.027  11.503  10.551
    7.208   8.380   8.812   8.461   7.269   8.648   8.111   9.937  11.315   8.756
    6.828   8.249   8.866   7.795   9.303   9.052   9.824   8.590  11.896  10.426
    8.103   7.600   9.779  10.416   8.641  10.663   9.288   9.087   9.083   9.285
    7.194   5.117   9.037   8.172   7.271   8.421   9.689   9.619   8.632  10.580
    7.479   6.118   6.885   9.129   7.088   9.422   8.649   8.403   8.362  10.218
    5.829   7.262   5.634   7.591   8.422   6.374   8.308   8.058   8.109  10.438

    0.150   9.240
   10.260   8.918   7.866  11.664   9.759   9.690  10.502  12.201  13.058  10.990
    8.376   8.718  10.784  10.001  10.725   8.964  10.116  12.271  14.199  11.386
    8.501   8.330   8.447   9.424  10.099  10.655   9.691  10.285  11.080  12.479
    7.136   8.314   9.427   6.933   8.803   9.876  10.711   8.637  11.402  10.675
    7.274   8.814   8.758   8.239   7.301   8.552   8.038  10.379  11.092   8.991
    6.676   8.757   8.666   7.357   9.328   8.824   9.740   8.791  11.350  10.463
    8.126   8.039   9.399  10.242   9.092  11.118   9.385   9.043   9.428   8.812
    7.030   5.470   9.365   8.112   7.528   8.354   9.632   9.733   8.468  10.691
    6.835   6.308   7.209   9.366   6.945   8.993   9.111   8.138   8.191  10.310
    6.031   7.491   5.473   7.434   7.972   6.679   8.641   8.146   8.620  10.945

    0.200   9.079
   10.349   8.903   7.272  11.792  10.206   9.996  10.753  12.344  12.673  10.530
    8.406   8.722  10.752  10.194  10.395   8.977  10.088  12.384  13.974  11.472
    8.774   8.686   8.391   8.889  10.696  10.738   9.468  10.615  11.036  12.605
    7.339   8.535   9.192   7.254   8.890   9.600  10.915   8.764  11.501  11.015
    7.749   9.036   9.155   7.730   6.900   8.746   7.500  10.265  11.068   8.536
    7.017   8.958   8.746   7.543   9.939   8.751   9.915   8.839  11.218  10.639
    8.194   7.735   9.585   9.925   8.822  10.878   9.780   8.789   9.487   8.714
    6.938   5.604   9.180   7.961   8.413   8.436   9.691   9.949   8.679  10.506
    7.115   5.970   7.405   9.487   7.395   9.367   9.005   8.180   8.196  10.549
    5.601   7.448   5.504   7.368   7.946   6.562   8.479   8.113   8.590  10.631

    0.250   9.124
   10.622   9.187   7.002  11.826   9.615  10.080  10.711  12.286  12.353  10.492
    8.991   9.138  10.504  10.136  10.573   9.222  10.247  12.109  14.186  11.487
    9.199   8.982   8.197   8.920  10.436  10.767   9.602  10.084  11.117  12.565
    7.213   8.544   9.352   7.620   9.118   9.193  11.574   8.866  11.241  10.913
    8.441   8.817   9.153   7.982   6.641   9.010   7.757   9.895  11.043   9.044
    6.845   9.297   8.577   7.553   9.881   8.857   9.705   8.925  11.070  10.786
    8.455   7.664   9.569   9.672   8.948  10.761   9.429   8.749   9.696   8.562
    7.042   6.002   9.384   7.453   8.450   8.212   9.067   9.908   8.649  10.625
    7.563   5.707   7.336   9.179   7.528   9.428   8.937   8.219   8.520  10.592
    5.562   7.554   5.699   7.127   7.582   6.405   8.206   8.247   8.670  10.258

    0.300   8.979
   10.331   9.444   7.414  11.843   9.231   9.819  10.675  12.307  11.947  10.677
    8.984   9.567  10.417   9.913  10.608   9.585  10.515  12.449  14.216  11.236
    8.840   9.289   8.043   8.936  10.385  10.761   9.916   9.890  11.206  12.716
    7.180   8.688   9.242   7.621   9.070   9.462  11.501   8.813  11.699  10.583
    8.352   8.755   9.197   8.058   6.600   8.470   8.151  10.015  11.176   8.968
    6.402   9.397   8.893   7.858  10.456   8.977   9.837   9.177  11.281  10.588
    8.294   7.998   9.762   9.322   9.496  10.907   9.413   9.217   9.564   8.776
    7.041   6.099   8.816   7.335   8.319   8.394   8.922   9.720   8.369  11.108
    7.179   6.268   7.223   9.555   7.187   8.980   8.863   8.352   8.449  10.605
    5.578   7.666   6.011   7.277   7.528   6.533   8.500   8.578   8.651  10.212

    0.350   9.310
   10.268   9.355   7.318  11.542   9.256   9.702  10.772  12.343  11.997  10.415
    8.674  10.116  10.441  10.150  10.663   9.959  10.823  12.701  14.100  11.452
    8.816   9.398   8.551   8.947  10.503  10.463  10.014  10.270  11.481  12.477
    7.440   8.717   9.027   7.844   9.078   9.258  11.610   8.843  11.538  10.428
    8.774   9.280   9.600   8.073   6.868   8.435   7.949   9.967  11.236   9.240
    6.290   9.726   8.831   7.986  10.326   8.733  10.205   9.233  11.101  10.485
    8.297   8.482   9.575   9.629   9.438  10.637   9.475   9.216   9.961   8.653
    7.534   6.545   8.815   8.087   8.314   8.825   9.441   9.768   8.562  11.181
    7.259   6.308   7.121   9.623   7.313   8.716   8.941   8.769   8.187  10.515
    5.426   7.716   6.167   6.976   7.269   6.380   8.065   8.572   8.516  10.276

    0.400   9.245
   10.090   9.112   7.399  11.512   9.150   9.973  10.677  12.972  12.113  10.659
    8.510  10.455   9.983   9.663  10.870   9.982  10.843  12.859  13.581  11.521
    8.511   9.245   8.571   9.140  10.536  10.595   9.790  10.364  11.285  12.189
    7.234   8.113   8.555   7.870   8.678   9.035  11.761   8.810  11.195  10.566
    8.818   9.079   9.497   7.991   7.045   8.902   7.889  10.345  11.509   9.294
    6.486  10.128   8.818   8.508  10.546   8.523  10.192   9.282  11.354  10.572
    8.330   8.876   9.749   9.606   9.378  10.410   9.783   9.246   9.881   8.484
    7.413   6.460   8.562   8.032   8.509   9.533   9.426   9.784   8.025  11.788
    7.241   6.395   7.203   9.479   7.625   9.014   9.144   8.381   8.689  10.458
    5.439   7.582   6.336   6.972   7.358   6.983   8.069   8.954   8.645  10.150

    0.450   9.294
   10.186   8.899   7.207  11.064   9.066  10.177  10.511  12.618  11.853  10.600
    8.776   9.728  10.174   9.719  11.235  10.382  11.118  12.735  13.547  11.471
    8.370   9.176   8.733   9.205  10.191  10.586   9.985  10.515  10.837  12.368
    7.460   7.972   8.342   7.939   8.689   8.373  11.980   8.502  11.021  10.371
    8.591   9.072   9.605   7.855   7.638   8.995   7.809  10.374  11.837   9.156
    6.875   9.897   8.962   8.176   9.885   8.103   9.803   9.299  11.737  10.681
    8.574   8.831   9.775   9.481   9.270  10.476   9.182   9.083  10.055   8.323
    7.548   6.667   8.378   7.729   9.107   9.457   9.504   9.762   8.000  11.931
    7.433   6.421   6.889   9.430   7.144   9.486   8.830   8.690   8.817  10.769
    5.683   6.970   6.117   7.005   7.322   7.355   8.534   9.031   8.771  10.445

    0.500   9.230
   10.040   8.797   7.546  10.598   9.308  10.235  10.408  12.662  11.737  10.357
    8.649   9.420  10.289   9.508  11.413  10.329  10.853  12.563  13.493  11.483
    8.150   9.426   9.142   9.354  10.580  10.663  10.240  10.528  11.566  12.210
    7.705   7.831   8.516   7.833   9.255   8.223  11.558   8.544  11.119  10.377
    8.384   8.732   9.914   7.701   7.688   8.770   8.018  10.565  11.957   9.464
    6.757   9.720   9.824   8.305   9.777   8.111   9.684   9.080  11.853  10.566
    8.337   9.167   9.757   9.269   9.627  10.308   9.196   9.558  10.160   8.192
    8.046   6.799   8.614   7.306   9.070   9.825   9.284   9.339   8.048  11.472
    7.741   6.272   6.618   9.149   7.145   9.734   9.039   8.660   8.824  10.650
    5.212   7.192   5.731   7.180   7.277   7.047   8.920   8.881   8.793  10.144

    0.550   9.260
   10.235   8.177   7.890  10.652   9.663  10.188   9.899  12.386  11.738  10.465
    8.382   9.186  10.118   9.638  11.320  10.283  11.100  12.209  13.584  11.135
    8.339   9.343   9.028   9.591  10.663  10.338  10.898  10.729  11.171  12.076
    7.378   8.458   8.614   7.935   9.243   8.328  11.408   8.647  11.444  10.172
    8.481   8.778   9.350   7.523   7.302   8.630   8.484  10.636  12.394   9.608
    6.551   9.862   9.848   8.373   9.567   8.215   9.241   9.122  11.726  10.088
    8.493   8.924   9.711   9.739   9.394  10.243   9.263   9.876   9.877   8.671
    8.285   6.702   8.755   7.217   8.572   9.668   9.458   8.971   7.770  11.228
    8.054   6.314   6.746   8.822   7.364   9.449   9.174   8.791   8.715  11.062
    5.597   7.079   5.903   6.858   7.310   7.230   8.677   9.240   9.122  10.181

    0.600   8.583
   10.312   8.107   7.983  10.318   9.229  10.197   9.336  12.172  11.864  10.151
    8.340   9.232   9.969   9.645  10.668  10.650  11.093  11.901  13.350  11.322
    8.479   9.123   9.002   9.276  10.479  10.701  10.915  10.674  10.932  11.930
    7.399   8.345   8.586   7.946   9.414   8.413  11.447   8.680  11.452   9.844
    9.197   8.913   8.848   7.402   7.612   7.950   8.880  10.622  12.564   9.806
    6.311   9.565   9.587   8.333   9.371   8.178   9.541   9.205  11.721  10.089
    8.320   8.838   9.595  10.082   9.434  10.378   9.226  10.442  10.075   8.947
    8.015   6.344   8.380   7.289   8.493   9.174   9.551   8.526   7.833  11.357
    8.402   6.859   7.183   8.807   7.426   9.180   9.767   8.778   9.159  11.591
    5.425   7.132   6.169   7.009   7.644   7.054   9.049   9.186   9.325   9.786

    0.650   9.133
   10.059   8.840   7.493  10.258   9.334   9.986   9.403  12.466  11.846  10.422
    8.147   9.117   9.891   9.462  10.860  10.753  10.941  11.958  13.409  10.924
    8.352   9.131   9.006   9.246  10.649  10.713  11.280  10.911  10.713  12.325
    7.572   8.509   8.557   7.684   9.223   8.999  12.006   8.771  11.733  10.237
    9.515   8.708   8.816   7.752   7.742   8.552   8.971  11.272  12.228   9.705
    6.857   9.795   9.567   8.773   9.738   7.945   9.359   9.618  11.844  10.034
    8.497   8.827   9.810   9.813   9.754  10.598   9.178  10.371   9.808   8.962
    7.821   6.593   9.042   7.172   8.339   9.211  10.011   8.879   7.819  11.277
    7.849   6.341   7.276   9.150   7.390   9.363   9.711   9.347   9.175  11.561
    5.385   6.517   6.022   6.850   7.580   6.827   8.575   9.158   9.330   9.602

    0.700   9.283
    9.982   8.593   7.817  10.484   9.621  10.345   9.221  12.607  12.236  10.372
    8.709   9.257  10.034   9.222  11.074  10.533  10.997  11.954  13.385  10.819
    8.408   9.327   8.863   9.208  10.764  10.815  11.026  11.093  10.460  12.277
    7.042   8.438   8.472   7.718   9.744   8.890  12.008   8.907  11.455   9.744
    9.573   8.578   8.786   7.956   7.743   8.337   8.848  10.932  11.864  10.014
    6.645  10.190   9.260   8.989   9.687   8.156   9.359   9.593  12.205   9.976
    8.402   8.393   9.629   9.984   9.893  10.169   9.349  10.547   9.888   8.965
    8.020   6.617   9.284   7.091   8.128   9.353   9.660   8.974   8.049  10.912
    8.279   6.763   7.072   9.251   7.405   9.506   9.108   9.298   9.591  11.165
    6.021   6.647   6.183   6.901   7.758   6.621   8.607   9.077   9.496   9.913

    0.750   8.925
   10.513   8.800   7.985  10.603   9.571  10.955   9.453  12.367  12.127  10.000
    8.874   9.406  10.274   8.939  10.781  10.263  10.919  11.956  13.542  10.657
    8.145   9.302   9.340   9.323  10.301  11.160  11.317  10.639  10.768  12.498
    7.223   7.934   9.038   7.690   9.936   8.670  11.811   9.124  11.211   9.624
    9.528   8.815   8.676   7.475   7.876   8.485   8.482  10.705  11.777  10.472
    6.773   9.494   9.376   9.022   9.978   8.453   9.672   9.549  12.259  10.002
    8.341   8.497   9.638   9.587   9.729   9.668   9.311  10.762   9.549   8.570
    7.646   6.924   9.376   7.227   8.013   9.455   9.354   8.819   8.125  11.097
    8.643   6.380   7.228   9.208   7.346   9.465   9.091   9.062   9.724  10.935
    6.424   6.634   5.697   7.099   7.787   6.641   8.080   8.912   9.325   9.270

    0.800   9.161
   10.244   8.764   7.914  10.303   9.398  10.604   9.460  12.223  11.990   9.855
    8.555   9.615  10.227   8.440  10.844   9.920  11.098  11.616  13.253  10.745
    8.005   9.471   9.692   9.343  10.267  11.197  10.957  10.219  10.882  12.704
    7.332   8.118   9.528   7.763   9.602   8.530  11.734   8.808  11.235   9.588
    9.225   9.181   9.013   7.686   7.998   8.554   8.712  10.886  11.825  10.003
    6.702   9.593   9.245   9.410   9.978   8.650   9.967   9.663  12.087   9.987
    8.746   8.075   9.061   9.725   9.543   9.960   9.749  10.639   9.525   8.489
    7.302   6.730   9.627   7.116   7.814   9.527   9.148   8.982   8.020  11.372
    9.252   6.436   7.078   9.015   7.436   9.568   8.838   8.939  10.042  10.891
    6.265   6.658   5.478   6.977   8.007   6.573   8.048   9.357   8.627   9.434

    0.850   9.283
   10.370   8.564   7.668  10.679   9.308  10.996   9.185  12.170  12.340  10.163
    8.349   9.544  10.296   8.993  10.580   9.887  11.107  11.709  13.665  11.086
    8.462   9.572   9.829   9.240  10.164  11.193  10.826  10.153  10.726  12.499
    7.630   8.279   9.255   7.730   9.225   8.644  11.212   9.146  11.406   9.707
    9.626   9.271   8.638   7.501   8.015   8.566   9.015  10.559  11.289   9.753
    6.797   9.596   9.338   9.210  10.513   8.848   9.914   9.780  12.000   9.730
    9.190   8.161   9.107   9.571   9.693  10.170  10.097  10.369   9.375   8.637
    7.840   6.621   9.330   7.101   7.972   9.417   8.904   9.388   8.281  11.473
    9.777   6.221   7.010   9.084   7.580   9.737   8.825   9.068  10.124  10.907
    6.373   6.477   5.193   6.820   8.290   6.251   8.762   9.085   8.577   9.282

    0.900   9.209
   10.102   8.804   8.005  10.526   9.446  10.655   9.515  12.280  11.936  10.420
    8.599   9.511  10.102   9.014  10.923  10.051  10.935  12.119  13.815  11.366
    8.531  10.498   9.674   9.390   9.900  11.389  11.486  10.500  10.251  12.182
    8.071   8.752   8.957   7.645   9.098   8.350  10.989   9.530  11.593   9.642
    9.964   8.860   8.635   7.549   8.210   8.177   9.271  10.222  11.560   9.585
    7.001   9.326   9.447   9.606  10.266   8.609  10.134   9.793  11.852   9.662
    9.330   7.878   8.610   9.610   9.550  10.217   9.830  10.294   9.339   8.944
    7.791   6.799   9.261   7.223   8.300   9.800   9.197   9.457   8.225  10.979
    9.995   6.269   7.388   8.779   8.013   9.878   8.620   8.474   9.729  10.723
    6.058   6.792   5.114   6.801   8.231   6.897   8.655   9.286   8.777   9.251

    0.950   9.393
   10.273   8.977   7.785  10.393   9.645  10.633   9.683  11.714  11.994  10.406
    8.537   9.392   9.791   8.765  10.802   9.845  10.562  12.030  13.440  11.213
    8.632  10.445   9.638   9.187  10.162  11.306  11.555  10.629  10.058  12.091
    8.138   8.162   9.738   8.060   9.618   8.597  11.062   9.593  11.847   9.609
    9.644   9.029   8.657   7.735   8.172   8.594   9.137  10.173  11.778   9.386
    7.402   9.620   9.004   9.987  10.163   8.460  10.388  10.049  11.724   9.712
    9.582   7.869   8.399  10.070   9.037  10.459   9.817  10.543   9.607   8.967
    7.738   6.827   9.192   7.221   7.958  10.246   9.466   9.040   8.150  11.002
    9.622   6.206   7.792   9.278   7.835  10.189   8.011   8.871   9.969  10.788
    6.086   6.673   5.127   6.970   8.426   7.019   9.028   9.135   8.482   9.443

    1.000   9.235
   10.625   9.166   8.311  10.623   9.446  10.480   9.513  11.579  11.906  10.237
    8.779   9.172   9.908   8.561  10.376  10.199  11.146  11.928  13.634  11.037
    8.566  10.232   9.882   8.826  10.141  10.746  11.422  10.708  10.550  11.655
    7.961   8.258   9.535   8.134   9.766   9.214  11.204   9.433  11.530   9.940
    9.295   9.126   9.069   8.094   8.007   8.315   9.255  10.759  11.694   9.719
    7.210   9.723   8.340   9.752   9.955   8.908  10.474  10.121  11.372   9.581
    9.434   8.348   8.574  10.343   8.850  10.452   9.935  10.531   9.480   9.075
    7.997   7.126   9.118   6.980   7.455  10.419   9.758   9.123   8.367  10.795
    9.457   6.474   7.571   9.436   7.795  10.228   8.150   8.760   9.517  10.725
    5.729   6.759   5.419   7.118   8.095   6.735   9.078   9.283   8.316   9.379

    1.050   8.589
   10.535   9.036   8.702  10.618   9.802  10.238   9.553  11.397  11.840  10.336
    9.007   9.491  10.604   8.900  10.505  10.163  11.437  11.966  13.631  11.308
    8.357  10.072   9.842   9.008  10.235  10.748  11.230  10.601  10.218  11.737
    7.658   8.603   9.638   8.508   9.772   9.139  11.601   9.073  11.299   9.706
    8.884   8.867   9.099   8.235   8.357   8.715   9.163  11.085  11.611   9.220
    7.228   9.620   8.606   9.593   9.642   9.168  10.326   9.894  11.178   9.546
    9.591   9.022   9.114  10.649   9.428  10.448  10.110  10.087   9.727   9.044
    7.809   6.663   9.511   6.819   7.522  10.342   9.474   8.840   9.058  10.708
    9.186   6.441   7.374   9.475   7.696  10.432   8.453   8.930   9.713  10.645
    5.895   7.129   5.816   7.038   8.586   6.762   9.483   9.657   8.394   9.728

    1.100   8.770
   10.523   9.132   8.717  10.863   9.890  10.304   9.596  11.442  11.634  10.151
    9.180   9.997  10.682   8.718  10.860  10.555  10.881  12.232  13.811  10.635
    8.393  10.189   9.837   9.435  10.112  10.244  10.959  10.223  10.275  11.481
    7.573   8.819   9.616   9.122   9.568   9.268  11.611   8.803  11.072   9.671
    9.100   8.326   8.919   8.665   8.185   8.907   9.472  11.616  11.552   9.241
    7.081   9.682   8.470  10.159   9.329   9.208  10.745   9.933  11.170   9.616
    9.544   9.193   9.457  10.662   9.343  10.618  10.001   9.991   9.437   9.183
    7.509   7.117   9.409   7.336   7.772  10.415   9.350   8.812   9.510  10.833
    9.008   6.204   7.302   8.983   7.035  10.513   8.639   8.623   9.446  10.573
    5.828   6.733   5.680   7.134   8.162   6.780   9.246   9.158   8.469   9.900

    1.150   8.315
   10.223   9.663   8.740  10.412   9.643  10.935   9.683  11.318  11.102   9.644
    9.236   9.945  10.123   8.737  10.499  10.530  11.308  12.871  13.577  10.568
    8.166   9.809   9.457   9.440  10.381  10.211  10.933  10.377  10.098  11.262
    7.744   8.581   9.733   8.833   9.229   9.141  11.179   8.981  11.372   9.654
    9.219   8.579   8.957   9.218   8.098   8.719   9.617  11.589  11.013   9.293
    7.223   9.950   8.717  10.102   8.893   9.204  11.092   9.769  11.152   9.795
    9.531   8.326   9.103  10.567   9.422  10.487  10.101  10.088   8.914   9.085
    7.525   6.964   9.235   7.547   8.052  10.467   9.087   8.678   9.221  10.739
    8.766   6.373   7.368   9.166   7.064  10.059   9.063   8.894   9.382  10.654
    5.512   6.981   5.722   7.059   8.256   7.215   9.345   9.444   8.281   9.929

    1.200   8.385
   10.582  10.201   8.639  10.757   9.637  10.548   9.558  11.628  10.865   9.409
    9.441   9.773  10.005   8.605  10.466  10.388  11.247  13.195  13.726  10.609
    8.186   9.141   9.143   9.215  10.684   9.943  10.909  10.114   9.798  11.474
    7.617   8.391   9.872   8.728   9.081   9.003  11.047   8.640  11.473   9.414
    9.281   8.691   8.991   9.503   8.439   9.086   9.756  11.355  10.986   9.269
    6.817  10.097   8.738  10.326   9.062   8.682  11.596   9.802  10.973   9.713
    9.740   8.220   8.876  10.315   9.028  10.396  10.028  10.063   8.752   9.352
    7.644   7.321   9.072   7.169   8.004  10.195   8.938   8.800   9.334  10.552
    8.690   6.717   7.396   9.225   7.328  10.225   8.969   8.899   9.145  10.400
    5.322   6.942   6.051   7.497   8.482   7.117   9.640   9.484   8.138  10.329

    1.250   8.478
   10.171  10.296   8.393  10.336   9.892  10.449   9.648  11.568  10.764   9.775
    9.767   9.454  10.009   8.671  10.531  10.213  11.485  12.819  13.021  10.429
    8.194   9.859   9.417   9.155  10.833   9.913  10.872  10.159   9.353  11.405
    7.562   8.386  10.284   8.481   8.898   9.001  10.996   9.119  11.060   9.680
    9.183   8.779   9.719   9.383   8.390   9.241   9.381  11.721  10.681   9.566
    6.468  10.307   8.706  10.169   9.099   8.732  11.506   9.685  11.296   9.683
    9.404   8.084   8.683   9.520   8.770  10.120   9.998   9.707   8.959   9.614
    7.137   7.469   8.844   7.698   7.990  10.592   9.259   8.726   9.287  10.896
    8.339   6.471   7.341   8.887   7.529  10.281   8.932   8.669   9.249  10.589
    5.585   7.184   5.810   7.269   8.628   7.607   9.448   9.687   8.144  10.144

    1.300   8.559
    9.427   9.946   8.194  10.208  10.222  10.309  10.009  11.669  10.391   9.647
    9.517   9.885   9.858   8.830  10.967  10.150  11.474  12.705  12.698  10.536
    8.061   9.739   9.009   9.186  10.728   9.936  10.825  10.270   9.682  11.844
    7.380   8.700   9.965   8.342   8.914   9.278  11.393   9.216  10.640   9.501
    8.932   8.706   9.479   9.288   8.298   9.239   9.716  11.521  11.039   9.311
    6.980   9.768   8.939  10.593   8.912   9.066  11.252   9.993  11.010   9.619
    9.143   8.080   8.632   9.440   8.813  10.020   9.703   9.440   8.908   9.034
    7.320   7.644   8.685   7.988   8.276  10.797   9.409   8.954   9.633  10.757
    8.371   6.395   7.157   8.967   7.337  10.370   8.552   8.583   9.000  10.501
    5.391   6.886   6.241   7.221   8.187   7.958   9.349  10.107   8.886  10.506

    1.350   8.816
    9.630   9.973   8.206  10.435   9.677  10.311   9.845  11.530  10.698   9.637
    9.599   9.596  10.218   8.383  11.056  10.150  11.093  12.580  12.686  10.150
    7.947   9.573   9.078   8.837  10.768  10.004  11.063  10.068   9.696  12.112
    7.214   8.798   9.937   8.370   8.658   9.838  11.520   9.575  10.436   9.592
    8.769   8.784   9.593   9.396   8.326   9.622  10.111  11.114  11.384   9.210
    7.596   9.384   8.935  10.297   9.427   9.247  11.389   9.935  10.821   9.715
    9.132   8.025   8.621   9.615   8.897  10.070   9.990   9.326   8.627   8.810
    7.190   7.836   8.520   8.373   8.044  10.611   9.142   8.909   9.473  10.657
    8.544   6.205   7.287   9.054   6.932  10.572   8.658   8.932   9.117  10.214
    5.028   6.649   6.457   7.076   8.290   7.891   9.133   9.675   8.829  10.292

    1.400   8.084
    9.873  10.467   8.575  10.244   9.524  10.362  10.033  11.467  10.371   9.993
    9.008   9.372  10.318   8.382  10.791  10.045  10.890  12.362  12.522   9.896
    7.864   9.656   9.065   9.432  10.820   9.699  11.136  10.258  10.073  11.521
    6.827   8.806   9.944   8.796   8.590  10.217  11.361   9.915  10.438   9.638
    8.953   8.632   9.558   9.448   8.252   9.388   9.949  11.339  11.122   9.079
    7.753   9.792   9.537  10.603   9.528   8.917  11.131   9.715  10.829   9.781
    9.001   8.114   8.426   9.619   8.784  10.514  10.119   9.302   8.743   8.544
    7.208   7.676   8.598   8.250   8.125  10.797   9.199   8.402   9.452  10.367
    8.108   6.417   6.998   8.987   7.030  10.644   8.838   8.844   9.336  10.279
    5.192   6.708   6.751   6.942   8.128   8.042   8.655   9.052   9.063   9.950

    1.450   8.032
    9.658  10.699   9.374  10.592   9.207  10.444  10.510  11.610  10.022  10.265
    8.995   9.233  10.247   8.799  10.722   9.879  10.731  12.257  12.751  10.441
    7.777  10.056   8.946   9.190  10.951   9.600  11.086  10.095   9.442  11.397
    6.487   8.800  10.231   8.714   8.630   9.982  11.045   9.404  10.538   9.389
    8.952   8.439   9.352   9.474   8.248   9.742   9.852  11.602  10.990   8.175
    8.111  10.110   9.674  10.551   9.406   9.132  10.761  10.017  10.649  10.000
    9.279   8.123   8.091   9.427   9.072  10.551  10.111   9.573   8.535   8.752
    7.232   7.381   8.436   8.663   8.408  10.925   8.953   8.674   9.546  10.449
    8.316   6.779   7.333   9.062   7.546  11.213   8.882   8.412   9.408  10.234
    5.582   6.149   6.214   6.973   8.012   7.502   8.480   8.820   9.158   9.890

    1.500   8.161
    9.558  10.421   9.235  10.406   9.152  10.631  10.628  11.401   9.761  10.100
    8.978   8.947  10.006   8.763  11.199   9.654  10.474  12.065  12.921  10.797
    8.166  10.159   8.706   9.002  10.267   9.439  11.168  10.151   9.143  11.625
    6.651   9.044  10.124   8.425   9.156  10.429  11.103   9.264  10.883   9.622
    9.152   8.654   9.060   8.971   8.838   9.854   9.992  11.252  10.868   8.066
    7.430  10.116   9.661  10.332   9.352   9.253  10.867   9.993  10.749   9.996
    8.778   8.031   7.876   9.136   8.734  10.458  10.258   9.486   8.704   8.953
    6.951   7.558   8.416   8.493   8.468  11.009   9.076   8.971   9.666  10.652
    8.204   6.782   7.795   8.966   7.609  11.362   9.102   8.583   9.659  10.263
    5.374   6.351   5.968   6.804   7.942   7.053   8.335   8.638   9.120   9.963

    1.550   8.438
    9.604  10.293   9.631  10.565   9.659  10.849  10.347  11.494  10.239   9.807
    8.872   8.832  10.056   8.312  11.433  10.108  11.235  11.646  12.892  10.409
    8.431  10.071   9.231   8.827  10.391   9.311  11.671  10.581   9.033  11.359
    6.991   9.167  10.482   8.204   9.064  10.355  10.872   9.802  10.547   9.587
    8.874   8.376   8.874   8.845   8.742  10.421  10.402  11.166  11.250   8.147
    7.268   9.580   9.545  10.323   9.517   9.468  11.094   9.600  10.790   9.880
    9.079   8.288   8.027   8.916   8.816  10.365   9.686   9.567   8.811   8.423
    6.832   7.892   8.346   8.552   8.562  11.457   8.730   9.378   9.803  10.526
    8.198   6.853   7.731   8.549   7.832  11.117   9.242   9.016   9.591   9.917
    5.435   6.278   5.727   6.349   8.127   7.475   8.034   9.107   9.220   9.709

    1.600   8.034
    9.814   9.991   9.728  10.598   9.434  10.522  10.057  11.409  10.515  10.063
    8.760   9.326  10.209   8.152  11.084  10.161  11.802  11.530  12.840  10.681
    9.054  10.324   9.550   9.118  10.530   9.281  11.681  10.780   8.940  11.479
    7.031   8.959  10.629   8.802   9.596  10.315  11.280   9.497  10.238   9.657
    9.065   8.893   9.129   8.515   8.656  10.374  10.366  11.689  11.820   8.679
    7.090   9.703   9.347  10.335   9.320   9.676  11.469   9.938  10.365   9.808
    8.509   8.175   8.472   8.476   8.934  10.098   9.011   9.838   8.954   8.296
    7.148   7.653   8.079   8.598   8.609  11.634   8.210   9.432  10.402  10.305
    8.498   6.527   7.307   8.417   8.287  10.864   9.127   9.461   9.638  10.347
    5.654   6.517   5.245   6.389   8.206   7.948   8.119   9.075   9.179  10.017

    1.650   8.185
    9.819  10.503   9.676  10.690   9.327  10.775  10.439  11.357  10.542  10.043
    9.019   9.430  10.405   8.192  10.515   9.714  11.319  11.580  13.095  10.793
    8.955  10.465   9.387   8.770  10.289   9.545  11.754  11.165   9.218  11.694
    7.605   9.088  10.190   8.724   9.228  10.437  11.509   9.916   9.630   9.665
    8.812   8.817   9.270   9.171   8.900  10.588  10.329  11.845  12.438   8.813
    7.170   9.731   9.764  10.066   9.520   9.503  11.218  10.295  10.477   9.976
    8.470   8.187   8.663   8.687   9.600  10.125   9.100  10.033   9.065   8.070
    6.564   7.713   7.815   8.507   9.076  12.202   8.288   8.859  10.870  10.148
    8.395   6.998   7.716   8.444   8.477  10.741   9.497   8.764   9.830  10.280
    5.977   6.770   5.344   6.050   8.193   7.576   8.306   8.874   9.037  10.277

    1.700   8.354
    9.827  10.676  10.052  10.387   9.371  10.552  10.551  11.295  10.472   9.904
    8.905  10.028  11.111   8.117  11.076   9.547  11.735  11.651  13.125  10.485
    8.734  10.749   9.763   8.379  10.616   9.789  11.614  10.922   8.935  11.396
    7.884   9.087  10.328   8.837   9.016  10.582  11.244   9.826   9.459   9.707
    8.782   8.826   8.881   9.268   8.451  10.781  10.254  11.686  12.008   9.033
    7.515   9.759   9.747   9.822   9.455   9.669  11.157  10.260  10.843   9.748
    8.642   8.228   8.697   8.667   9.729  10.263   9.222  10.162   9.225   8.420
    6.222   7.925   7.921   8.543   8.999  11.958   8.637   8.566  10.514  10.090
    8.152   6.931   7.792   8.097   8.463  10.431   9.410   8.629   9.995  10.301
    5.711   6.684   6.066   6.125   8.147   7.922   8.396   9.030   8.984  10.056

    1.750   8.650
    9.637  10.770  10.295  10.261   9.373  10.613  10.398  11.197  10.594  10.652