
This full-field turbulence file was generated by TurbSim (v1.40, 12-Sep-2008) on 27-May-2021 at 14:31:20.

 | u-comp |  Y  x  Z  | Grid Resolution (Y x Z) | Time-step | Hub Elev | Mean U |
            10    10     15.556     15.556          0.050      89.60      7.00

 Z Coordinates (m):
  -70.000 -54.444 -38.889 -23.333  -7.778   7.778  23.333  38.889  54.444  70.000

 Y Coordinates (m):
  -70.000 -54.444 -38.889 -23.333  -7.778   7.778  23.333  38.889  54.444  70.000

    0.000   7.322
   10.493   9.775   9.861   9.185   8.800   8.184   5.531   7.238   6.427   8.800
    8.185   8.833   4.905  11.036   9.110   7.369   8.047   8.670   6.155   6.470
    9.372   8.971   7.384   8.903   8.852   7.139   5.640   6.260   7.169   7.071
    8.238   7.622   6.469   8.311   8.019   7.920   8.053   4.648   6.995   6.389
    3.134   5.950   7.919   7.893   8.189   4.483   9.654   7.426   2.658   5.403
    5.709   5.353   8.079   8.507   4.245   6.901   7.657   6.137   6.263   4.661
    5.983   7.237  10.417   9.606   6.490   6.307   8.794   6.575   4.861   2.763
    6.183   8.827   8.803   7.638   6.192   5.330   6.058   5.505   3.597   5.519
    5.319   3.879   7.975   7.725   8.082   3.828   6.621   6.472   4.233   3.511
    2.374   5.619   6.071  10.534   5.524   5.999   6.510   4.391   4.962   3.428

    0.050   7.703
   10.353  10.175   9.995   8.959   8.394   8.489   5.732   7.278   6.890   8.720
    8.447   8.886   5.382  11.301   9.187   6.863   7.930   8.119   6.520   7.014
    8.911   9.000   7.639   8.884   9.692   7.168   5.354   6.326   7.029   6.951
    8.656   7.458   6.856   8.637   8.187   7.892   7.368   5.014   7.338   6.052
    3.245   6.137   8.049   7.596   8.235   4.385   9.373   7.049   2.444   5.810
    5.714   5.586   7.689   8.331   5.007   6.767   8.046   5.990   6.597   4.571
    5.796   7.018  10.412   9.889   6.778   6.223   9.113   6.626   5.356   2.943
    5.989   8.572   9.145   7.945   6.347   5.554   6.023   5.369   3.813   5.340
    5.410   3.724   7.625   7.609   7.786   3.620   6.647   6.679   3.905   3.443
    2.624   5.795   5.909  10.344   5.519   6.032   6.251   4.542   4.972   3.691

    0.100   7.728
   11.000  10.206   9.856   8.653   8.279   8.849   6.095   7.181   7.108   9.005
    8.716   8.582   5.723  11.524   9.473   7.077   8.029   8.060   6.416   6.936
    8.722   8.583   7.643   9.185   9.585   7.109   5.477   6.089   6.799   6.826
    8.615   7.443   6.607   8.490   8.728   7.994   7.445   4.835   6.972   6.052
    3.449   5.840   8.152   7.729   8.182   4.477   9.097   6.803   2.437   5.799
    5.774   5.643   8.158   8.574   5.242   7.043   7.853   6.319   6.845   4.970
    5.690   7.660  10.247   9.332   6.241   6.246   8.828   6.394   5.622   2.660
    6.881   8.597   8.985   8.233   6.092   5.312   5.809   5.239   3.954   5.344
    5.432   3.401   7.212   7.972   7.984   3.745   6.743   6.454   4.168   3.011
    2.400   5.867   5.698  10.410   5.805   5.517   5.933   4.137   4.526   3.345

    0.150   7.747
   11.073   9.995   9.644   8.383   7.719   8.829   6.116   6.964   6.460   9.547
    8.299   8.738   6.227  11.777   9.652   6.989   8.046   7.995   6.698   6.695
    9.087   8.136   7.688   9.107   9.227   7.058   5.663   6.336   7.087   7.072
    8.488   7.599   6.452   8.807   8.768   7.962   7.482   4.592   6.655   6.525
    3.803   5.824   8.339   7.998   8.057   4.801   8.929   6.884   2.916   5.543
    5.371   5.524   8.354   9.041   5.484   7.292   8.313   6.625   6.741   4.846
    6.060   7.310  10.512   9.057   6.115   5.816   8.405   6.082   5.913   2.999
    7.260   8.468   9.109   8.739   6.305   5.171   6.000   5.304   4.064   5.425
    5.952   3.315   7.199   7.748   8.181   3.986   6.749   6.402   3.925   3.254
    2.634   6.116   5.279   9.823   5.545   5.205   5.780   4.354   4.405   2.820

    0.200   7.831
   11.050  10.406   9.673   8.535   8.009   8.845   6.513   7.268   6.042   9.754
    7.747   9.086   6.670  11.587   9.502   6.620   8.173   8.164   6.658   6.334
    9.042   8.452   8.130   8.524   9.289   7.814   5.791   6.140   6.549   7.392
    7.922   7.503   6.883   9.012   8.280   7.510   7.298   4.243   6.917   6.590
    3.247   6.344   8.681   8.236   8.442   4.361   9.111   6.682   3.093   5.697
    5.606   5.386   8.549   8.637   5.529   7.213   8.041   6.849   6.020   4.714
    5.958   7.323  10.161   9.510   6.670   5.974   8.624   6.234   5.809   3.117
    6.798   8.283   9.219   8.042   6.314   4.825   6.042   5.749   3.897   5.495
    6.200   3.277   7.264   7.607   8.546   4.500   6.188   6.199   3.871   2.995
    2.211   6.198   5.237  10.167   5.549   5.641   6.255   4.388   4.333   2.984

    0.250   7.934
   11.335  10.924  10.069   8.635   8.242   8.845   6.645   7.155   6.002  10.081
    8.121   8.657   6.743  11.590   9.685   6.493   8.108   8.255   7.021   5.595
    9.066   8.512   7.456   8.845   9.060   8.145   5.799   6.537   6.343   7.597
    8.222   8.027   6.734   9.023   7.829   7.421   7.587   4.132   6.391   6.597
    3.212   6.129   9.043   7.896   8.758   4.801   9.156   7.254   2.937   5.799
    5.700   5.533   8.315   8.265   5.429   7.449   7.800   7.144   6.325   4.717
    5.572   7.364  10.315   8.726   6.400   6.217   8.593   6.188   6.111   2.168
    6.463   8.404   9.810   7.524   6.470   4.862   5.758   5.592   4.224   5.832
    5.789   3.358   6.890   7.399   8.509   4.514   6.051   6.819   3.888   2.912
    2.098   6.188   5.003   9.679   5.610   5.666   6.312   4.495   4.683   3.212

    0.300   8.407
   11.486  10.376  10.270   8.614   7.961   8.927   6.300   7.048   5.595  10.191
    8.197   8.383   6.313  11.048   9.740   6.017   8.128   7.883   7.208   6.157
    8.774   8.753   7.169   8.897   9.194   8.175   5.693   6.829   6.861   7.235
    8.100   8.039   7.242   8.443   8.242   7.399   7.539   4.208   6.273   6.485
    3.071   6.042   8.524   8.387   8.143   5.115   9.336   7.108   2.987   5.808
    5.367   5.229   8.248   7.999   5.471   7.417   7.736   6.846   6.682   4.408
    5.899   7.446   9.835   8.611   6.215   6.473   8.078   6.001   6.075   2.303
    6.428   8.329   9.191   7.606   6.360   5.492   5.882   5.798   4.626   5.648
    5.175   3.987   6.872   7.178   8.841   4.706   6.134   7.245   3.722   3.055
    2.129   6.512   5.216   9.767   5.567   5.551   6.103   4.371   4.390   3.291

    0.350   8.638
   11.613  10.274  10.407   8.453   8.641   9.162   6.114   7.637   5.862   9.292
    8.426   8.047   6.370  10.864   9.359   5.750   8.475   7.877   7.098   5.947
    8.950   8.726   7.064   9.073   8.786   7.631   5.937   6.605   7.337   6.783
    8.172   8.202   7.188   8.716   8.293   7.373   6.802   4.223   6.335   6.814
    3.628   6.030   8.015   8.028   8.020   5.447   9.221   7.383   3.253   6.021
    5.284   5.837   8.770   8.500   5.484   7.336   7.695   6.740   6.732   4.659
    6.185   7.564   9.568   8.928   6.400   6.313   7.745   6.591   6.169   2.362
    6.833   7.863   8.981   7.374   5.618   5.057   5.965   5.938   4.575   5.722
    5.274   4.146   6.992   7.320   8.791   4.664   6.139   7.572   3.457   3.599
    2.036   6.550   5.283   9.746   5.534   5.827   5.814   4.259   4.351   3.622

    0.400   8.211
   11.551  10.209  10.005   8.341   7.996   8.991   6.386   7.332   5.922   9.414
    8.209   8.212   6.412  10.792   9.416   6.026   8.245   7.857   6.758   6.143
    9.425   8.647   6.971   9.025   8.716   7.827   6.718   6.741   6.611   6.358
    7.726   8.337   7.701   8.700   8.249   7.206   6.709   4.651   6.478   6.763
    3.713   5.880   7.797   7.677   7.731   5.348   9.220   7.136   3.065   5.321
    5.378   5.949   8.116   8.297   5.970   7.300   7.370   6.671   6.438   4.591
    6.864   7.326   9.628   8.931   6.548   6.147   7.576   6.191   5.995   1.822
    6.926   7.582   9.230   7.188   5.390   5.046   6.026   5.982   4.849   5.752
    5.343   4.098   6.561   7.562   8.441   4.786   6.290   6.971   3.486   3.417
    1.876   6.998   5.526   9.748   5.634   6.010   6.448   4.466   4.503   3.325

    0.450   8.534
   11.863  10.150  10.034   8.324   7.686   8.665   6.517   7.329   5.892   9.445
    8.284   8.514   6.664  11.054   9.686   6.225   8.395   8.018   6.609   5.788
    9.645   8.524   6.622   9.290   9.154   7.662   6.948   6.351   6.976   6.599
    7.289   8.491   7.678   9.056   8.193   6.997   6.507   4.620   6.425   6.681
    3.986   5.747   8.257   7.931   7.223   5.474   8.654   7.250   3.383   5.153
    5.228   5.992   7.795   8.070   5.548   7.091   7.501   6.763   6.693   4.985
    6.884   7.624   9.807   9.319   6.669   5.588   7.102   5.987   6.015   2.069
    7.185   7.715   8.670   7.616   5.809   5.204   6.092   6.677   4.212   6.084
    5.367   4.243   6.272   7.829   8.389   4.653   6.337   6.633   3.411   3.375
    2.288   6.580   5.884   9.443   5.270   5.383   6.683   4.744   4.615   3.132

    0.500   8.147
   11.545   9.864   9.841   8.271   7.658   8.511   6.279   7.539   5.654   9.294
    8.484   8.593   6.683  11.102   9.982   6.107   8.271   7.992   6.509   5.935
    9.880   8.581   6.671   9.149   9.149   7.836   6.823   6.402   7.358   6.539
    6.934   8.645   7.026   9.673   7.618   7.007   6.339   4.616   6.497   6.659
    3.746   5.891   8.260   7.731   6.687   5.513   8.494   7.366   3.462   4.914
    5.964   6.329   8.224   7.742   5.597   6.766   7.750   6.928   6.747   5.595
    7.202   7.570   9.838   8.917   6.385   5.716   7.237   6.426   6.174   2.120
    7.170   8.115   8.515   7.806   6.032   5.382   6.626   6.686   3.634   5.826
    5.239   3.869   6.435   7.806   7.633   4.746   6.179   6.741   3.666   2.721
    1.830   6.336   6.082   9.320   5.525   5.066   7.055   4.183   4.619   3.606

    0.550   8.208
   11.193   9.468  10.106   7.832   7.601   8.361   6.085   6.946   6.286   9.088
    8.654   8.158   6.601  11.153   9.936   6.122   8.680   8.219   6.156   6.179
    9.608   8.840   7.070   9.185   8.893   7.517   6.233   6.296   6.961   6.961
    7.056   8.627   7.154   9.601   7.883   7.272   6.360   4.602   6.657   6.240
    4.355   6.239   8.112   7.345   6.745   5.744   8.011   7.136   3.088   5.459
    5.831   6.653   8.241   7.611   5.557   6.926   7.516   6.536   6.646   5.601
    7.451   7.744   9.510   8.930   6.646   6.208   7.246   6.394   5.876   2.070
    7.602   8.019   9.045   7.099   6.375   5.346   7.004   7.067   3.691   6.044
    5.427   4.032   6.113   7.772   7.780   4.443   5.912   7.050   3.926   3.190
    1.970   6.451   5.764   9.293   5.442   5.210   6.814   4.215   4.669   3.500

    0.600   7.746
   11.328   9.931  10.025   7.830   7.180   8.329   6.230   7.571   6.995   8.875
    8.795   8.773   6.813  11.212   9.465   6.214   8.686   8.032   6.278   6.658
    9.547   8.983   7.547   9.813   8.625   7.855   6.044   6.589   6.789   6.933
    6.930   8.697   6.967   9.894   7.865   7.145   6.553   5.124   6.388   6.161
    4.556   6.524   8.548   7.060   7.383   5.743   8.000   6.951   3.307   5.652
    5.778   6.122   8.664   8.188   5.393   6.903   7.601   6.750   7.243   5.651
    7.193   7.726   8.901   9.172   6.683   5.786   7.093   6.128   5.453   2.219
    7.544   8.154   9.337   7.195   5.804   5.479   7.055   7.246   3.871   5.937
    5.651   4.373   6.236   8.035   7.483   4.552   5.533   7.223   3.930   2.905
    2.129   6.551   5.415   9.545   5.678   5.243   6.624   4.236   4.310   3.316

    0.650   8.271
   10.939  10.089  10.271   8.043   7.156   8.340   6.235   8.197   6.779   8.544
    9.119   8.762   6.572  10.998   9.083   6.159   8.961   7.941   7.308   6.308
    9.738   8.982   7.522   9.476   8.930   7.629   5.603   7.018   6.701   6.773
    6.880   9.031   7.236  10.100   8.296   7.260   6.309   5.054   6.256   5.985
    4.139   6.144   8.306   7.640   7.751   5.900   8.511   6.791   3.392   5.516
    5.388   5.504   8.719   8.577   5.438   7.409   7.373   6.863   6.829   5.505
    7.403   7.586   9.209   9.361   6.986   6.140   7.559   6.099   5.515   2.789
    7.446   7.548   9.537   7.130   5.986   5.929   6.333   7.232   3.609   6.163
    5.498   5.008   5.965   7.953   7.569   4.781   5.770   6.759   2.925   2.729
    1.832   6.740   5.707   9.192   5.363   4.953   7.241   4.474   4.578   3.322

    0.700   8.145
   10.656   9.805  10.656   8.259   7.349   8.101   5.621   8.134   6.774   8.437
    8.980   8.662   6.931  11.034   9.009   6.095   9.188   8.326   7.036   6.044
    9.992   8.933   7.563   8.924   8.962   7.256   5.601   6.569   6.648   6.855
    6.618   9.097   7.359   9.954   8.927   7.211   6.213   4.448   6.368   6.104
    4.159   6.342   8.487   7.405   7.851   6.415   8.996   6.833   3.094   5.783
    5.042   5.926   8.537   8.156   5.458   7.629   7.495   6.940   6.287   5.628
    7.235   7.857   9.212   9.140   6.852   5.683   7.480   6.195   5.480   3.026
    7.699   7.794   9.458   7.405   6.160   6.053   6.330   7.067   3.750   6.201
    4.798   4.785   6.374   7.743   7.482   4.308   6.273   6.686   3.359   2.514
    2.237   6.200   5.496   9.508   5.323   4.915   7.028   4.402   4.701   3.799

    0.750   7.781
   10.470   9.593  11.184   8.132   7.725   7.816   5.429   7.876   6.413   7.973
    8.738   8.773   7.583  11.046   8.797   6.230   9.125   8.234   7.283   6.358
   10.249   8.693   7.880   8.929   9.255   7.256   5.661   6.517   6.291   6.823
    6.131   9.063   7.088   9.435   8.893   7.046   6.521   4.398   6.458   6.093
    4.316   6.226   8.423   7.555   8.050   5.770   8.838   6.179   3.697   5.156
    5.482   5.940   8.409   7.780   4.987   7.568   7.259   6.956   6.568   5.913
    6.981   7.887   9.175   8.942   6.237   5.998   7.380   5.914   5.288   2.991
    7.720   7.690   9.127   7.454   6.160   5.537   6.149   6.846   4.089   6.244
    4.825   4.287   6.541   7.678   7.477   4.795   6.268   6.963   3.679   2.646
    2.978   6.141   5.785   9.425   5.396   4.664   6.995   4.439   4.706   4.259

    0.800   7.254
   10.810   9.730  10.467   8.613   7.616   8.111   5.273   7.255   6.185   7.886
    8.814   8.674   7.993  11.078   8.553   6.219   8.903   7.855   7.353   6.486
   10.226   9.037   7.470   8.846   9.187   6.947   5.543   6.419   6.263   6.675
    6.287   9.188   6.458   9.348   9.010   7.371   6.651   4.595   6.602   6.373
    4.457   6.050   8.671   7.255   8.840   5.774   8.984   6.404   3.840   5.167
    6.104   5.474   8.242   8.452   5.129   7.591   6.892   7.042   6.651   5.579
    7.073   8.364   9.676   8.677   5.755   5.769   7.046   5.875   5.138   2.866
    7.637   7.546   8.883   7.474   5.969   5.546   5.847   6.936   3.965   6.714
    4.861   4.459   6.822   7.880   7.524   4.832   6.482   7.021   4.079   2.570
    2.943   6.134   6.168   9.170   5.179   4.725   7.835   5.089   4.645   3.945

    0.850   7.312
   10.433   9.861  10.722   8.686   7.758   8.437   5.369   7.427   6.445   7.985
    9.470   8.655   7.755  11.063   8.758   6.176   8.513   8.125   7.283   6.288
   10.241   8.876   6.845   8.897   8.355   7.229   5.479   6.226   6.513   6.858
    6.839   9.084   6.539   9.176   9.336   7.759   6.891   4.476   5.995   6.156
    4.319   6.196   8.788   7.301   9.009   5.349   8.997   6.949   4.041   5.327
    6.339   5.442   8.620   8.389   5.535   7.687   7.197   7.056   6.804   5.759
    6.584   8.412   9.506   8.835   5.788   5.221   7.036   5.936   4.801   3.129
    7.775   7.374   8.586   7.040   5.957   5.607   5.934   6.578   3.614   7.191
    4.933   4.781   6.939   7.513   7.569   4.837   6.548   6.532   4.305   2.288
    2.977   6.107   6.372   9.046   5.360   4.954   7.560   4.722   3.939   3.281

    0.900   7.500
   10.338  10.123  10.796   8.255   7.457   7.886   5.439   7.616   6.114   8.377
    9.091   9.051   7.724  11.390   8.833   6.644   8.570   7.975   7.690   6.046
   10.226   8.608   7.084   8.646   8.352   7.026   6.090   6.486   6.502   7.010
    7.014   9.399   6.448   9.300   9.554   7.816   6.952   4.690   6.021   6.759
    4.358   6.250   9.015   7.182   8.841   5.018   8.585   7.026   3.951   5.779
    6.012   5.330   9.292   8.264   5.599   7.878   7.353   7.301   6.816   5.554
    6.713   8.445   9.886   8.949   5.897   5.316   7.019   5.866   4.719   3.126
    7.420   8.003   8.635   7.176   5.604   6.094   6.161   6.612   3.735   7.118
    4.807   4.623   6.964   7.048   7.436   4.708   6.231   6.455   4.325   2.547
    2.861   5.873   6.677   8.990   5.642   4.716   6.989   4.605   3.738   4.222

    0.950   7.568
   10.694  10.131  10.350   8.311   7.098   7.847   5.816   7.395   5.988   8.550
    9.496   9.036   7.638  11.678   8.337   6.149   8.929   8.347   7.964   6.298
   10.449   8.453   7.194   8.804   7.960   6.819   5.867   6.101   6.333   6.813
    6.186   9.463   7.152   8.826   9.503   7.596   7.080   4.851   5.791   7.286
    3.811   6.224   8.898   6.855   8.842   5.301   8.872   7.251   3.483   5.739
    5.850   4.833   9.060   7.702   5.417   7.755   7.091   7.093   6.154   5.070
    6.197   8.920  10.265   8.791   5.750   5.458   7.190   5.418   4.490   3.350
    7.329   8.620   8.621   7.254   5.205   5.920   5.555   6.472   4.198   7.205
    4.757   4.359   6.901   7.220   7.685   5.172   6.006   6.150   3.975   2.455
    2.666   5.790   6.861   9.158   5.214   3.890   7.101   4.808   3.841   3.675

    1.000   7.752
   10.370   9.939  10.569   8.432   7.558   7.966   5.674   7.442   6.386   8.718
    9.218   9.423   7.689  11.283   8.484   6.194   8.853   7.797   8.078   5.853
   10.133   8.116   7.103   9.335   8.118   6.823   5.218   5.729   6.293   6.735
    6.619   9.250   7.506   8.381   9.408   7.422   7.549   4.828   5.994   6.956
    3.895   5.626   8.754   6.968   8.870   5.710   9.054   6.926   3.221   5.178
    5.599   4.953   9.317   7.881   5.741   7.650   6.714   6.987   6.515   5.028
    5.967   8.660  10.359   8.225   5.693   5.710   7.545   5.689   4.552   3.424
    7.291   9.037   8.684   6.750   5.513   5.604   5.389   6.153   4.224   6.900
    4.571   4.846   6.570   7.177   8.288   4.899   5.823   5.945   3.645   2.445
    2.579   6.020   7.051   9.277   5.911   3.954   6.956   4.804   3.974   3.903

    1.050   8.003
   10.346  10.156  10.312   8.775   7.389   7.992   5.898   6.821   6.242   8.921
    9.102   9.607   7.746  12.022   8.292   6.104   8.727   7.897   8.067   6.382
   10.150   7.858   7.378   9.309   8.306   6.468   4.812   5.603   6.005   7.279
    6.740   9.311   7.542   8.841   9.393   7.369   7.592   4.403   5.867   6.793
    4.159   5.571   8.672   7.043   8.673   5.306   8.802   7.277   3.244   5.673
    6.038   5.456   9.460   7.698   5.875   7.906   7.143   6.879   6.486   4.828
    6.135   8.355  10.368   7.796   5.806   5.826   7.777   5.621   4.436   3.125
    7.227   9.144   8.961   7.056   5.820   5.522   5.190   6.032   4.590   6.883
    4.288   4.445   6.636   7.522   8.234   4.360   5.533   6.103   3.347   2.389
    2.284   5.437   7.028   9.347   5.176   4.109   6.909   4.285   4.305   3.694

    1.100   8.121
   10.132  10.370  10.171   8.608   7.713   7.938   5.466   6.724   6.226   8.978
    9.107   9.174   7.623  12.068   8.028   5.920   8.881   7.946   8.200   6.735
    9.987   7.888   7.156   9.629   8.251   6.578   4.966   5.843   5.831   6.742
    6.702   9.295   7.667   8.924   9.129   6.931   7.704   4.475   5.505   6.834
    4.176   5.744   8.294   7.564   8.488   4.909   8.802   7.226   3.545   5.888
    5.769   5.683   8.646   7.692   5.713   7.853   7.480   7.151   6.221   5.565
    6.889   7.637  10.372   8.177   5.833   5.780   7.525   5.298   4.386   3.100
    7.453   9.213   8.301   7.420   5.801   5.944   5.198   6.790   4.580   6.794
    4.289   4.174   6.286   7.125   7.940   4.621   5.498   6.552   3.367   2.611
    2.531   5.945   6.661   9.174   5.369   4.094   7.125   4.462   4.242   3.625

    1.150   7.939
   10.104   9.967   9.594   8.751   7.595   8.278   5.214   7.552   6.664   9.608
    9.061   9.284   7.458  11.954   7.517   5.592   8.056   8.327   8.744   6.916
   10.340   7.816   7.121   9.197   8.463   6.491   5.062   5.821   6.675   7.406
    6.729   8.422   7.492   9.026   8.469   6.784   7.818   4.595   5.947   6.255
    4.391   6.673   8.394   7.408   8.464   4.468   8.295   6.929   3.658   6.002
    6.174   5.518   8.469   7.723   4.915   7.604   7.515   7.002   6.500   5.319
    7.676   7.325  10.084   8.333   5.520   5.702   7.406   4.946   4.444   2.900
    7.551   8.446   8.092   7.065   5.912   5.957   5.325   7.240   4.600   6.627
    4.340   3.859   6.344   7.201   7.912   4.411   5.624   6.733   3.462   2.289
    2.326   5.909   6.566   9.293   5.650   4.435   6.929   5.187   4.384   4.179

    1.200   8.473
   10.474   9.907  10.139   8.605   7.562   8.312   5.232   7.047   6.610   9.832
    9.124   8.829   7.698  12.154   7.931   5.584   8.144   8.266   8.792   6.991
   10.228   7.880   7.498   9.073   8.459   6.745   4.954   5.999   6.594   7.700
    6.627   8.308   7.354   9.273   8.432   6.839   7.592   4.687   5.783   5.778
    4.453   7.271   8.085   7.801   8.749   4.983   8.364   7.060   3.497   5.583
    6.298   5.487   8.671   7.283   5.112   7.535   7.347   6.885   6.415   5.320
    7.185   7.636  10.058   8.468   5.576   5.774   6.977   4.997   4.225   2.603
    7.565   8.043   7.981   6.674   5.667   6.009   5.507   7.098   4.907   6.673
    4.102   3.838   6.326   7.928   7.631   4.538   5.889   6.384   3.662   2.351
    1.985   5.778   6.942   9.000   5.568   4.385   6.501   5.066   4.134   4.006

    1.250   8.420
   10.047   9.974  10.549   8.682   7.892   8.430   5.226   6.922   6.648  10.262
    9.287   8.720   8.133  11.783   8.431   5.493   7.924   8.405   8.464   7.052
    9.963   8.035   7.444   9.271   8.386   7.232   4.899   6.230   6.646   7.490
    6.458   8.134   7.218   9.537   8.156   6.963   7.085   4.339   5.878   5.460
    3.938   7.128   8.409   7.492   8.576   5.023   8.467   6.880   3.619   5.561
    6.038   5.394   8.482   7.186   5.284   7.465   7.224   6.726   6.289   5.391
    6.950   7.689   9.629   8.910   5.365   5.825   6.919   5.102   3.946   2.096
    7.777   7.953   7.637   6.438   5.822   5.538   5.509   7.240   4.830   6.392
    4.254   3.598   6.276   8.045   7.686   4.962   5.921   5.992   3.541   2.334
    1.888   5.820   6.608   9.388   5.300   4.270   6.282   5.138   4.148   3.620

    1.300   8.142
   10.474  10.357  10.495   9.035   7.849   7.957   5.771   6.922   6.693  10.014
    9.099   8.995   8.138  11.511   8.127   6.295   7.904   9.164   7.870   6.813
    9.557   8.079   7.452   9.479   8.542   7.035   4.921   6.915   6.414   7.286
    6.495   8.137   7.131   9.832   8.278   6.325   6.832   4.329   5.723   6.163
    4.138   7.183   8.543   7.529   8.682   5.325   8.892   7.338   3.673   5.612
    6.170   5.545   8.444   6.700   4.849   7.720   7.208   6.739   6.394   5.429
    6.819   7.956   8.965   8.889   5.313   5.835   6.859   5.287   3.373   1.897
    7.963   8.216   8.082   5.999   5.703   5.913   5.611   7.374   4.789   6.006
    4.144   3.852   6.179   8.183   7.628   4.944   5.820   6.178   3.445   2.780
    2.158   5.713   6.717   9.634   4.869   4.246   6.613   5.465   3.798   4.014

    1.350   7.999
   10.741  10.685  10.682   9.040   8.056   8.438   5.865   7.103   6.951   9.197
    9.300   8.775   8.145  11.131   7.779   6.281   7.780   8.791   8.015   6.481
    9.608   8.533   7.673   9.290   8.655   6.691   4.640   6.928   6.012   7.241
    7.029   8.163   7.115   9.987   8.368   6.433   6.477   4.776   5.665   6.772
    4.060   7.392   8.674   7.378   9.180   5.823   8.914   7.143   3.873   6.033
    6.789   5.782   8.174   7.104   4.968   8.017   7.567   7.074   6.231   5.536
    6.671   7.863   8.818   8.748   5.342   5.991   6.855   5.799   3.911   2.155
    7.904   8.235   7.777   5.934   5.238   5.958   5.407   7.621   5.186   6.334
    3.684   3.928   6.046   8.120   7.673   5.131   5.463   6.494   3.151   2.964
    1.879   6.258   7.038   9.491   4.977   5.034   6.277   5.930   3.124   4.209

    1.400   8.218
   10.402  10.166  10.642   8.740   8.053   8.514   5.478   6.424   6.879   9.345
    8.898   8.687   8.024  11.529   7.457   6.260   7.564   8.261   8.276   6.142
    9.961   8.490   7.738   9.503   8.564   6.677   5.463   6.917   5.905   7.007
    6.885   8.539   7.196  10.131   8.847   6.440   6.382   4.498   5.752   6.684
    3.826   7.315   8.821   7.587   8.941   5.474   8.424   7.145   4.058   5.975
    6.948   5.398   8.457   7.377   5.136   8.184   7.587   7.449   6.106   5.864
    6.589   7.945   9.156   8.656   5.343   5.347   7.073   5.596   3.807   2.289
    7.422   8.151   7.585   5.715   5.334   5.885   5.797   7.391   5.301   6.202
    3.304   3.863   5.941   8.299   7.837   4.891   5.590   6.400   3.149   2.909
    1.514   6.311   7.072   9.742   5.134   4.634   6.315   6.261   3.479   4.205

    1.450   8.245
   10.762  10.042  10.671   8.828   8.355   8.080   5.374   6.118   6.156   9.228
    9.022   9.038   7.919  11.248   7.097   6.034   8.127   8.519   8.156   5.937
   10.130   7.733   7.708   9.635   8.470   6.110   5.654   7.345   5.636   6.716
    6.959   8.711   6.996   9.654   8.963   5.768   6.194   4.377   5.766   6.851
    3.601   7.499   8.918   7.670   9.021   5.604   8.569   6.924   4.465   6.051
    7.646   5.040   9.033   7.576   5.101   8.256   7.746   7.558   6.389   6.021
    6.457   7.729   9.205   8.756   5.868   5.398   6.796   5.504   3.934   2.418
    7.455   8.089   7.534   5.841   4.969   5.844   5.836   7.658   5.392   6.604
    3.916   3.384   6.152   7.705   7.704   4.514   5.534   6.160   3.373   2.786
    1.747   6.368   7.100   9.635   4.874   5.136   6.086   5.774   3.525   3.911

    1.500   8.313
   10.412   9.801  10.663   9.202   7.925   7.908   5.073   6.044   5.578   9.482
    9.252   8.851   7.833  11.215   7.073   5.889   8.332   8.483   7.488   6.600
   10.221   7.517   7.860   9.824   8.583   6.418   5.644   7.509   5.775   6.942
    6.651   8.485   6.768   9.417   9.165   5.252   5.958   4.461   5.751   7.087
    3.748   7.383   8.828   7.904   9.338   5.887   8.688   6.100   4.669   5.999
    7.712   5.295   8.917   7.488   5.435   8.331   8.113   7.902   6.242   5.912
    6.573   8.133   9.510   8.565   5.978   5.210   7.294   5.747   3.809   1.990
    7.522   8.023   7.683   6.196   5.002   5.947   5.323   7.758   5.076   6.240
    3.922   3.935   6.503   7.854   7.237   4.663   5.885   6.104   3.550   2.391
    2.136   6.934   6.385   9.587   4.911   5.514   6.392   5.967   3.391   3.762

    1.550   8.403
   10.459   9.306  10.695   9.572   8.194   7.351   4.874   6.157   5.365   9.281
    9.099   8.971   8.351  10.446   6.960   6.124   7.649   8.301   7.512   6.825
   10.452   7.478   8.666   9.691   8.743   5.936   5.399   7.419   6.215   6.650
    6.950   8.076   6.231   9.762   8.887   5.267   5.589   4.589   5.542   6.634
    4.307   6.941   8.099   8.380   9.137   5.448   8.561   6.205   4.259   6.338
    8.041   5.458   8.719   7.930   5.588   8.251   8.434   7.935   6.222   5.736
    6.324   8.315   9.291   8.355   6.134   5.014   7.321   5.691   4.625   1.904
    7.298   8.095   7.940   6.167   4.862   6.020   5.396   7.919   5.371   6.462
    3.790   4.014   6.891   7.963   7.516   4.711   5.487   5.858   3.718   2.247
    1.924   6.739   6.139   9.659   4.751   6.060   6.369   5.784   3.203   3.562

    1.600   8.140
   10.470   9.496  10.349   9.745   8.307   7.004   5.180   6.424   5.238   9.283
    9.791   9.491   8.252  11.014   7.526   6.282   7.776   8.155   7.455   6.827
   10.624   7.257   8.785   9.882   8.187   6.148   5.057   7.433   6.202   6.504
    6.535   7.951   6.401   9.573   9.278   5.734   5.621   4.890   5.604   6.578
    4.346   6.887   8.155   8.557   9.048   5.646   7.976   6.679   3.823   6.310
    8.410   5.264   8.679   7.972   5.580   8.294   8.756   8.074   6.116   5.772
    6.330   9.021   9.526   8.823   6.102   4.305   7.119   5.815   4.796   2.210
    7.548   8.275   7.881   6.409   5.260   6.138   5.717   8.007   5.512   6.492
    3.613   3.662   6.724   7.638   7.041   4.756   6.223   6.064   3.721   2.258
    1.968   6.800   5.904  10.077   4.996   5.935   6.206   5.536   3.321   3.706

    1.650   8.523
   10.336   9.908  10.228   9.602   8.116   7.092   5.303   6.730   5.489   9.460
   10.071   8.790   8.524  11.583   7.769   6.276   7.631   8.337   7.949   7.396
   10.047   7.015   8.280   9.565   8.146   6.554   4.875   7.498   5.521   6.410
    6.533   8.447   5.896   9.294   9.034   5.686   5.685   4.496   5.771   6.352
    4.603   7.460   7.818   8.246   9.319   5.919   7.447   7.309   3.630   6.135
    8.425   5.138   8.710   7.764   5.706   8.204   8.647   8.311   6.121   5.493
    6.461   8.982   9.278   8.842   6.311   4.085   7.180   5.571   4.767   2.529
    7.264   8.684   7.789   6.323   5.653   6.913   6.271   7.827   5.517   6.454
    3.475   3.633   7.135   7.991   6.566   4.749   6.179   6.313   3.949   2.328
    2.197   6.737   5.317  10.169   5.014   5.216   6.036   4.999   3.219   4.026

    1.700   8.554
   10.159   9.680  10.519   9.081   8.270   7.078   5.562   7.281   5.536   9.479
   10.097   8.996   9.199  11.332   7.903   6.647   7.247   8.423   7.867   7.236
    9.686   6.880   8.232  10.000   8.141   6.460   5.119   7.451   5.715   6.241
    7.078   8.582   5.708   9.298   8.613   5.104   5.421   4.870   5.113   6.379
    5.089   7.257   7.875   8.041   9.345   5.491   7.806   7.399   2.970   6.253
    8.122   4.927   8.519   7.620   5.145   8.376   8.902   8.495   6.040   5.397
    6.283   9.067   8.901   9.442   6.096   4.402   6.921   5.718   5.115   1.872
    7.209   8.654   7.530   6.313   6.122   7.028   5.816   6.940   5.270   7.160
    3.443   4.154   6.912   8.449   6.955   4.854   6.538   6.671   3.793   2.625
    2.568   6.338   4.811  10.196   5.198   5.170   6.100   4.812   3.300   4.122

    1.750   8.598
    9.870   9.690  10.201   9.011   8.197   7.271   4.891   6.862   5.850   9.826