
This full-field turbulence file was generated by TurbSim (v1.40, 12-Sep-2008) on 27-May-2021 at 14:31:26.

 | u-comp |  Y  x  Z  | Grid Resolution (Y x Z) | Time-step | Hub Elev | Mean U |
            10    10     15.556     15.556          0.050      89.60      9.00

 Z Coordinates (m):
  -70.000 -54.444 -38.889 -23.333  -7.778   7.778  23.333  38.889  54.444  70.000

 Y Coordinates (m):
  -70.000 -54.444 -38.889 -23.333  -7.778   7.778  23.333  38.889  54.444  70.000

    0.000   9.486
   10.582  11.757  10.534  10.142  12.582  10.935  10.746   9.424   9.614   9.165
   10.112  13.704  11.456  11.516  11.563   9.185  10.132   9.042  10.158   9.940
    8.320  11.998  12.644   9.584  12.146  11.420  10.444  11.609  10.532   9.882
   11.196   9.653   9.768   9.347  10.320  10.388  11.188  11.310  12.003   8.327
    7.880   8.702   6.334   8.315   9.877  12.577   8.930  10.182  10.692  10.567
    8.321   9.009   9.058   6.593   9.389   7.745   8.495  10.325   9.132   9.175
    7.909   7.352   9.009   7.164   6.806   8.923   8.426   9.634  11.638   9.672
    6.995   9.286   8.332   6.104   6.568   5.693   6.298   9.499  11.589   8.919
    6.131   5.363   6.873   6.835   6.010   7.885   7.351   9.774  10.190  10.279
    4.090   5.868   7.411   7.201   7.779   6.984   9.130   9.673   8.721   7.092

    0.050   9.916
   10.847  12.326  10.119  10.536  12.700  10.729  10.372   9.687   9.755   9.226
   10.271  13.607  11.384  12.106  11.739   9.295   9.825   8.590   9.902   9.804
    8.327  11.783  12.434   9.667  12.229  11.499  10.637  11.624  10.268   9.789
   11.668   9.920   9.832   9.657  10.439  10.777  11.211  11.087  11.898   8.063
    7.845   8.697   6.471   8.453   9.807  12.644   8.956  10.062  10.307  10.752
    8.654   9.033   9.138   6.040   9.332   8.371   8.268  10.654   8.957   9.505
    8.148   7.448   8.229   7.012   7.181   9.297   8.286   9.917  11.832   9.875
    7.603   8.769   8.194   6.604   6.768   5.886   6.370   9.684  11.867   9.041
    6.142   5.217   6.436   6.705   5.762   7.882   7.458   9.796  10.316   9.745
    4.332   6.107   7.315   7.252   7.714   6.853   8.962   9.504   8.595   7.478

    0.100  10.137
   10.930  12.597  10.495  10.646  12.626  10.653  10.359   9.959  10.114   9.154
   10.011  13.431  11.310  11.570  11.693   9.026  10.017   8.333   9.970   9.428
    8.929  12.211  12.574   9.703  12.457  10.998  11.053  12.050  10.408  10.259
   11.488   9.452  10.345   9.653  10.506  10.859  11.028  11.134  11.700   8.177
    8.191   9.079   6.107   8.539   9.832  12.591   9.366   9.846  10.288  11.328
    8.420   9.181   9.332   6.278   9.208   8.575   8.398  10.390   9.207   9.768
    7.954   6.920   8.117   6.791   7.420   9.555   8.646  10.289  11.685   9.952
    7.623   8.242   7.953   6.268   6.981   6.010   6.604   9.735  11.796   9.033
    6.136   5.443   6.377   6.816   5.841   8.380   7.067   9.579  10.526   9.619
    4.124   6.124   7.015   7.017   7.706   6.108   8.693   9.166   8.351   7.096

    0.150   9.445
   10.733  12.633  10.778  10.409  12.455  10.208   9.873  10.030  10.097   8.942
    9.600  13.390  11.747  11.394  11.824   9.175   9.930   8.687   9.837   9.618
    9.043  11.983  12.433  10.008  12.950  11.061  11.088  12.213  10.337   9.814
   11.620   9.140  10.684  10.041  10.495  10.487  11.064  11.124  11.887   8.607
    8.080   9.190   6.270   8.699  10.242  12.615   9.529  10.089  10.372  11.959
    8.109   9.111   9.434   6.415   9.958   8.750   8.660  10.811   9.475   9.715
    7.931   6.571   8.888   6.632   7.105   9.045   8.965  10.080  11.803  10.059
    7.302   8.118   7.795   6.301   6.712   5.910   6.622   9.378  11.830   8.795
    5.870   5.906   6.583   6.734   5.513   8.159   6.936   9.829  10.634   9.525
    4.338   6.430   6.759   6.754   7.284   6.181   9.045   9.269   8.554   7.512

    0.200   9.130
   11.020  12.984  10.625   9.992  12.102  10.275   9.628   9.963  10.488   9.242
    9.519  13.435  12.096  10.869  11.339   9.204  10.219   8.675   9.826   9.249
    9.599  11.854  11.979  10.475  12.945  10.848  11.417  12.311  10.380   9.522
   11.589   9.297  10.803   9.915  10.362  10.914  11.504  10.912  11.802   8.960
    7.948   8.793   6.570   8.922   9.866  12.891   9.798  10.249  10.543  11.822
    8.644   8.671   9.277   6.583  10.077   8.967   8.546  10.809   9.668   8.993
    8.337   6.252   8.721   6.852   6.365   8.562   8.645   9.705  11.216  10.280
    7.615   7.969   7.934   6.357   6.364   5.515   6.111   9.274  11.863   8.970
    5.083   6.254   6.592   7.105   5.244   7.721   7.326   9.582  10.517   9.487
    3.907   6.366   6.760   6.819   7.231   6.295   9.174   9.051   8.891   7.886

    0.250   9.013
   10.532  13.215  10.568  10.431  12.088  10.246  10.211  10.033  10.797   9.153
    9.378  13.390  12.389  10.633  11.374   9.103  10.244   8.498   9.852   9.228
    9.871  11.616  12.144  10.127  12.962  11.029  10.955  12.254  10.475  10.092
   11.439   9.172  10.380   9.720  10.973  10.396  11.570  11.001  11.216   8.695
    7.942   8.741   6.217   8.586   9.937  12.185  10.382  10.241  10.313  12.196
    9.320   8.845   9.385   6.890  10.167   8.882   8.683  10.541  10.062   9.206
    8.524   6.237   8.707   6.982   6.118   8.340   8.855   9.450  11.420  10.013
    7.063   8.013   7.815   6.049   5.874   5.625   5.849   9.117  11.572   9.121
    5.410   6.016   6.980   7.182   5.331   7.747   7.280   9.427  10.270   9.221
    3.835   6.495   6.796   6.457   7.009   5.929   8.824   8.932   8.787   7.725

    0.300   8.693
   10.501  12.314  10.491  10.933  12.127  10.504   9.660   9.942  10.649   9.004
    9.822  13.125  12.174  10.551  11.003   8.866   9.719   8.464  10.092   9.535
    9.952  11.869  12.218  10.129  12.824  11.369  10.643  12.499  10.562  10.407
   11.292   9.120  10.197   9.542  11.137  10.030  11.711  10.798  11.019   8.367
    7.646   8.930   6.223   7.853   9.696  12.005  10.170  10.184  10.038  11.988
    9.156   9.112   9.624   6.581   9.768   8.934   8.843  10.493   9.954   9.552
    8.026   6.286   8.834   6.531   6.592   8.572   8.556   9.443  11.638  10.084
    7.450   7.785   7.438   6.761   5.741   5.548   6.065   8.869  11.102   9.354
    5.841   5.498   6.874   6.924   5.761   8.129   7.360   9.833  10.018   9.404
    3.863   6.641   7.157   6.631   6.786   5.925   8.828   8.838   9.032   7.505

    0.350   8.955
   10.304  12.618  10.569  10.924  12.348  10.461  10.178  10.304  10.375   9.602
    9.934  13.326  12.327  10.401  11.164   8.953   9.686   8.593   9.906   9.601
    9.786  12.187  12.313  10.271  12.569  11.455  11.096  12.642  10.690  10.331
   11.545   9.314   9.948   9.572  11.446   9.972  11.809  10.394  11.084   8.383
    7.937   9.403   6.156   7.839   9.296  12.070  10.068  10.248   9.996  11.903
    8.665   9.243   9.135   6.228   9.402   8.665   8.881  10.497   9.804   9.662
    8.383   6.343   8.982   6.433   6.884   8.670   8.580   9.619  11.596  10.150
    7.434   8.040   7.755   7.346   6.017   5.538   6.341   8.736  11.626   9.423
    5.692   5.636   7.148   6.556   5.956   8.561   7.474   9.224  10.225   9.132
    3.726   6.749   7.301   6.450   6.642   5.686   9.094   9.032   9.087   7.278

    0.400   8.998
   10.356  12.234  10.610  10.864  12.810  10.589  10.669  10.517  10.531   9.385
   11.026  13.232  12.593  10.079  11.215   8.927   9.428   8.919   9.602   9.702
    9.748  11.910  12.500  10.109  12.705  11.255  11.167  12.893  10.189  10.010
   11.599   9.099   9.913   9.719  12.029   9.719  11.863  10.658  10.823   8.420
    7.808   9.524   6.085   8.234   9.588  12.123  10.027  10.606  10.028  11.605
    8.933   9.156   9.066   6.878   9.715   8.634   8.947  10.332   9.741   9.369
    8.368   6.063   9.029   6.302   6.575   8.796   8.515   9.719  10.945   9.870
    7.105   7.870   7.987   7.563   5.321   5.726   6.591   8.879  11.635   9.088
    5.830   5.614   6.850   6.753   5.552   8.972   7.273   8.898  10.728   9.025
    3.671   6.824   7.662   6.276   6.315   5.222   8.496   8.646   8.919   7.435

    0.450   8.910
   10.454  12.218  10.502  10.911  12.752  10.402  10.540  10.563  10.864   9.364
   11.332  12.778  12.338   9.854  11.006   8.911   9.500   9.171   9.768   9.888
   10.062  12.101  12.400  10.002  12.684  11.535  11.382  12.088  10.382  10.075
   11.063   8.404   9.955   9.161  12.375   9.861  12.126  10.747  10.727   8.683
    8.369   9.595   6.280   8.274   9.424  12.639  10.063  11.046  10.042  11.435
    9.280   9.498   9.285   7.385   9.843   9.145   9.205   9.920   9.638   9.578
    7.845   6.204   8.849   6.248   6.744   8.989   8.423   9.455  10.619  10.330
    6.676   7.470   7.611   7.838   5.522   6.105   6.760   8.578  12.001   8.645
    5.840   5.678   6.838   6.586   5.261   9.109   6.903   9.308  10.812   9.429
    3.999   6.192   7.706   6.167   6.379   5.747   8.136   8.952   8.932   6.826

    0.500   8.761
   10.380  12.544  10.023  10.798  13.172  10.606  10.398  10.458  10.918   9.634
   11.239  12.838  12.433   9.689  11.099   8.967   9.469   9.081   9.442   9.670
   10.030  11.730  12.522  10.431  12.641  11.854  11.354  12.876  10.306  10.359
   11.122   8.158   9.932   9.144  11.851  10.293  11.838  10.473  10.617   8.919
    8.797   9.605   6.580   7.952   9.342  13.077   9.885  11.084  10.283  11.399
    9.094   9.922   9.355   7.146  10.150   8.946   9.138  10.203   9.984   9.662
    8.041   6.639   8.665   6.078   7.123   9.359   7.713   9.326  11.097  10.293
    6.587   7.730   7.464   7.741   5.371   6.047   6.545   8.439  11.663   8.626
    5.691   5.603   7.076   6.425   5.542   9.226   6.904   8.974  10.681   9.119
    3.498   6.230   7.438   6.340   6.167   6.041   7.988   9.095   8.927   7.067

    0.550   9.550
   10.060  12.594  10.460  11.448  12.983  10.907  10.580  10.475  10.780   8.967
   11.039  13.000  12.197   9.815  11.350   9.289   9.459   9.163   9.403  10.126
   10.037  11.447  12.180  10.125  12.424  12.483  11.606  12.849  10.276  10.192
   11.597   8.242   9.995   9.434  11.517  10.193  11.573  10.120  10.660   8.879
    8.815  10.191   6.719   8.217   9.867  12.611   9.899  10.772  10.449  10.947
    9.097   9.367   9.128   7.292  10.602   9.069   8.946  10.147   9.658   9.518
    7.907   6.713   9.014   5.800   7.424   9.139   7.513   9.716  11.101  10.660
    6.585   7.613   7.390   8.020   5.808   5.496   7.106   8.753  11.248   8.686
    5.705   6.182   7.394   6.341   5.828   8.965   6.941   9.209  10.816   8.944
    3.819   6.247   7.107   6.359   5.964   5.966   8.421   8.872   8.878   6.837

    0.600  10.002
    9.534  13.165  10.467  11.673  13.297  11.044  10.797  10.303  10.828   9.348
   10.892  12.996  12.081  10.303  11.204   8.789   9.720   8.885   9.617  10.065
   10.392  11.483  12.019  10.044  12.847  12.388  11.546  12.608   9.887  10.092
   11.605   8.261  10.070   9.471  11.326   9.951  11.296  10.110  10.696   8.634
    8.803   9.691   6.293   7.737   9.875  11.869   9.883  10.120  10.241  11.104
    8.753   9.591   8.449   7.292  10.429   9.200   8.902  10.192   9.553  10.209
    8.062   6.292   8.970   5.665   7.633   9.304   8.076   9.806  11.346  10.154
    6.801   8.058   7.491   7.814   6.148   5.463   6.865   8.230  11.550   8.630
    5.274   6.239   7.807   6.285   5.906   8.610   6.713   8.867  10.211   8.417
    3.769   6.343   7.566   6.114   5.716   6.246   8.028   8.814   8.482   6.790

    0.650   9.757
   10.139  12.843  10.322  11.499  13.464  10.890  10.757  10.416  11.335  10.076
   10.836  12.996  12.184  10.621  10.797   9.094   9.951   9.076   9.366  10.077
   10.565  11.384  12.173  10.145  12.657  12.640  11.755  12.431   9.949   9.838
   11.589   8.523   9.985   9.467  11.716  10.319  11.062  10.149  10.266   8.778
    8.686   9.566   6.408   7.849   9.573  11.690   9.882  10.407  10.435  10.873
    9.004   9.223   8.076   6.962   9.989   9.190   8.352  10.231   9.591  10.085
    7.949   6.153   8.657   5.804   7.663   9.581   7.804   9.554  11.187  10.089
    7.132   8.148   8.383   7.654   6.329   5.436   6.969   8.038  11.458   8.785
    4.781   5.764   7.874   6.711   5.981   8.406   7.450   8.485  10.647   8.517
    3.601   5.963   7.528   6.278   5.865   6.513   8.493   9.018   8.566   7.027

    0.700   9.756
   10.642  12.475  10.144  11.201  13.807  10.733  10.486  10.574  11.276  10.350
   10.602  12.730  12.302   9.975  10.693   9.017  10.056   9.024   9.113   9.621
   10.450  11.564  12.200   9.818  12.799  12.273  12.009  12.143  10.123   9.373
   11.536   8.984  10.277   9.746  11.660  10.604  10.882  10.510  10.622   8.654
    8.903   9.693   6.384   7.603   9.680  11.506  10.471  10.580  10.186  11.195
    9.155   8.692   8.623   6.737   9.422   9.000   8.274  10.092   9.638   9.517
    7.651   6.206   8.691   6.375   7.908   9.625   7.591   9.389  10.835   9.912
    7.151   8.160   8.156   7.614   6.307   5.590   7.636   8.493  11.374   9.349
    5.286   6.112   7.601   6.867   5.983   8.368   7.763   8.555  10.597   8.496
    4.182   5.608   7.818   5.970   5.670   6.634   8.654   8.917   8.338   7.237

    0.750   9.278
   10.335  12.249   9.914  11.055  13.456  10.895  10.138  10.603  11.113  10.435
   10.448  12.499  12.361  10.171  10.544   9.100  10.106   9.147   9.125   9.607
   10.511  11.242  12.209   9.591  12.805  12.483  11.668  12.081  10.061   9.779
   11.888   9.145  10.393   9.348  11.323  10.265  10.990  10.218  10.135   8.852
    9.032   9.820   6.322   7.602   9.726  11.133  10.188  10.299  10.589  10.937
    9.499   8.176   8.870   6.489   9.991   9.348   8.261  10.491   9.604   9.636
    7.637   6.309   8.693   6.320   7.714   9.397   8.181   9.409  11.081   9.978
    6.853   8.165   7.867   7.498   6.397   5.692   7.568   8.632  11.203   9.558
    5.459   6.177   7.637   7.135   6.071   8.639   7.726   8.513  10.306   8.752
    4.749   5.783   7.966   5.972   5.630   6.693   8.808   9.328   8.016   6.416

    0.800   9.308
   10.639  12.319  10.176  11.156  12.856  10.927  10.115  10.029  10.882   9.897
   10.287  12.408  12.925  10.059  10.587   9.224   9.876   9.063   8.711  10.249
   10.397  10.739  12.060   9.941  12.511  12.040  11.143  12.550  10.407  10.100
   11.652   8.675  10.427   8.904  11.537  10.065  10.643  10.148   9.958   8.465
    8.701   9.599   6.597   7.227   9.836  11.566  10.055  10.174  11.077  10.550
    9.772   7.909   8.822   6.112  10.349   9.836   8.318  10.489   9.667   9.694
    7.882   6.515   8.920   5.869   8.130   9.438   8.430   9.164  10.921   9.811
    6.326   8.518   8.105   7.783   6.786   5.530   7.401   8.811  11.297   9.451
    5.693   5.805   7.707   7.253   6.057   8.496   7.588   9.001  10.673   8.862
    4.587   5.639   7.741   6.152   5.519   6.604   9.759   9.362   7.570   6.939

    0.850   9.399
   10.871  12.536  10.506  11.119  13.517  10.267   9.863  10.010  10.712   9.933
   10.414  12.416  13.079  10.098  10.732   9.304   9.663   8.611   8.606   9.960
   10.224  10.661  12.175   9.788  12.280  12.024  11.026  12.498  10.809  10.050
   11.201   9.463  10.289   9.249  11.614   9.634  10.851  10.275   9.746   8.130
    9.004   9.564   6.562   7.096   9.757  11.992   9.572   9.582  10.792  10.366
    9.698   7.900   8.631   5.964  10.303   9.836   8.223  10.118   9.542   9.910
    7.780   6.060   8.316   5.984   7.990   8.886   8.271   9.218  11.275   9.824
    6.359   8.209   8.286   7.728   6.682   5.806   7.347   9.236  11.343  10.198
    6.140   6.151   7.610   7.112   6.008   8.697   7.740   8.835  10.614   9.117
    4.711   5.587   7.571   6.179   5.137   7.124   9.294   9.032   8.028   6.729

    0.900   9.001
   11.028  12.740  10.016  11.345  13.351  10.238   9.769  10.473  10.416  10.220
   10.450  12.285  12.523  10.369  11.082   9.162   9.924   9.124   8.459  10.389
    9.806  10.830  12.078  10.183  12.155  12.646  11.288  12.495  10.840   9.718
   11.483   9.406  10.059   9.434  11.860  10.045  11.077  10.565   9.837   8.325
    8.434   9.223   6.494   6.871   9.865  11.857   9.633   9.652  10.499  10.602
    9.879   8.236   8.961   6.527  10.198   9.694   8.039   9.999   9.727  10.201
    8.305   5.684   8.079   6.183   7.919   8.857   8.094   9.280  11.190   9.891
    6.864   7.814   8.296   7.664   6.871   5.896   7.677   9.439  11.729  10.084
    6.537   5.764   7.148   7.567   5.876   8.502   7.428   8.484  10.099   9.087
    4.424   5.426   7.239   6.059   5.464   6.908   9.251   9.358   8.299   6.617

    0.950   9.140
   10.884  12.319   9.947  11.572  13.155  10.246  10.374  10.415  10.445  10.164
   10.567  12.707  12.434  10.050  10.803   8.801  10.347   9.378   8.658  10.573
   10.690  10.953  12.119  10.245  11.507  12.444  11.569  11.728  10.856   9.764
   11.330   9.593   9.381   9.027  12.010  10.340  10.724  10.692   9.583   8.356
    8.297   9.354   6.547   7.200   9.503  11.881  10.054   9.293  10.501  10.510
   10.118   8.150   9.310   6.491   9.755   9.710   7.877  10.315   9.938   9.579
    8.052   6.327   8.113   6.339   8.027   8.613   8.060   9.078  10.783   9.689
    6.956   8.224   8.354   7.585   6.534   6.342   7.542   9.305  11.971  10.003
    6.783   5.938   6.860   7.409   5.380   8.864   6.959   8.494  10.137   9.075
    4.404   5.783   6.927   5.814   5.048   6.313   9.305   9.143   8.188   6.735

    1.000   9.404
   10.862  12.824  10.105  11.583  13.372  10.452  10.148  10.341  10.490  10.462
   10.776  12.962  12.544   9.668  11.120   8.358  10.247   9.046   8.963  10.336
   10.963  10.781  12.558  10.198  11.210  12.129  11.565  12.101  10.945   9.533
   11.132  10.159   9.238   9.023  11.328  10.534  10.496  10.331   9.983   8.486
    8.008   9.771   7.214   7.135   9.235  11.654   9.654   8.961  10.389   9.901
   10.002   8.812   9.131   6.217   9.869  10.146   8.135  10.687  10.017   9.774
    7.957   5.974   7.989   6.616   7.767   8.661   8.008   9.023  10.572   9.845
    6.720   7.727   8.169   7.332   5.996   6.247   7.558   9.351  11.842   9.952
    6.702   5.656   6.919   7.040   5.705   8.553   6.779   8.911  10.357   9.052
    4.113   5.326   6.591   5.716   5.624   6.507   9.248   9.299   7.988   6.664

    1.050   9.116
   10.622  13.164  10.117  11.294  13.465  10.586  10.275  10.325  10.543   9.992
   10.815  12.948  12.862   9.745  11.216   9.184  10.331   9.131   8.655  10.201
   11.122  11.090  12.427  10.158  11.252  11.856  11.649  12.180  10.591   9.287
   11.613  10.165   9.006   9.426  11.348  10.294  10.541  10.174   9.727   8.239
    8.312   9.671   7.452   7.520   9.203  11.305   9.530   8.952  10.383   9.647
    9.977   8.573   8.898   6.572   9.906  10.227   7.962  10.361   9.895   9.868
    8.279   6.179   8.166   6.404   7.377   8.669   7.813   8.715  10.551   9.841
    6.607   7.263   8.676   7.023   5.986   6.612   7.972   8.855  12.306   9.839
    6.692   5.596   7.154   6.873   5.554   8.715   7.038   8.758   9.986   9.222
    4.103   5.876   6.510   5.794   5.120   6.639   9.319   9.772   8.053   6.501

    1.100   9.427
   10.419  13.159  10.109  11.332  13.677  10.356  10.308  10.473  11.100   9.474
   10.150  12.060  12.587  10.240  11.260   9.307  10.002   8.757   8.376  10.151
   11.092  11.242  11.995  10.242  11.046  11.624  11.160  12.115  10.787   9.289
   11.363  10.365   9.638   9.603  11.262  10.411  11.119  10.378   9.767   8.185
    8.694   9.789   7.307   7.281   9.468  11.065   9.996   9.119  10.612   9.712
    9.984   8.589   8.407   7.314   9.666  10.223   7.723  10.056   9.833   9.557
    8.176   5.980   7.672   6.651   7.085   8.924   7.798   8.749  10.708   9.643
    6.496   7.876   8.823   6.842   5.727   6.411   7.873   9.213  12.408   9.941
    6.778   5.970   7.353   6.452   5.083   8.984   7.000   9.027   9.909   9.250
    4.212   5.810   6.860   5.702   5.268   6.869   8.955   9.214   8.234   6.619

    1.150   9.621
   10.658  13.208  10.602  11.807  13.419  10.508   9.972  10.144  10.917  10.268
    9.954  11.814  12.580   9.950  11.771   8.926   9.719   8.857   8.890  10.058
   11.437  11.701  12.016  10.220  11.360  11.688  11.275  12.168  10.573   9.146
   11.213  10.366   9.426   9.435  11.282  11.009  11.175  10.571   9.697   8.003
    8.373   9.608   6.344   7.413   9.503  11.147  10.470   9.171  10.500   9.497
   10.337   8.993   8.451   7.217  10.160   9.399   7.521   9.863  10.110   9.756
    8.674   6.708   7.596   6.555   6.983   8.799   7.542   8.850  10.845   9.572
    6.741   7.762   8.573   6.683   5.616   6.416   8.022   9.132  12.104  10.353
    6.655   6.095   7.397   6.696   4.885   9.031   6.827   9.143   9.989   9.345
    3.887   5.685   6.642   5.747   5.502   7.002   8.961   9.244   8.343   6.795

    1.200   9.554
   10.914  13.273  10.243  11.920  12.642  10.213  10.295  10.102  11.070  10.152
    9.795  11.964  12.566   9.719  11.811   8.877   9.114   8.676   9.077  10.265
   10.497  11.411  12.335   9.859  11.297  11.706  11.121  12.183  10.204   9.235
   11.403  10.432   9.237   9.039  10.964  11.147  11.465  10.207   9.758   7.956
    8.519   9.266   6.162   6.959   9.681  10.789  10.113   8.820  10.582   9.446
   10.297   9.180   8.255   7.116  10.098   9.571   7.514   9.899  10.189   9.794
    8.231   7.103   8.293   7.101   7.181   8.589   7.539   8.421  10.944   9.579
    7.060   7.433   8.707   7.566   5.554   6.028   7.811   8.908  11.803  10.404
    6.763   5.966   7.523   7.072   4.986   8.669   7.050   8.540   9.894   9.221
    3.608   5.836   6.519   5.388   5.410   6.787   9.309   9.449   8.240   6.369

    1.250   9.595
   11.346  13.411  10.041  12.280  12.851  10.068  10.244   9.656  10.682  10.063
   10.132  12.115  12.463   9.505  11.935   8.962   9.254   8.209   8.849  10.891
   10.697  11.296  12.317   9.596  11.616  11.718  11.001  11.694  10.160   8.684
   11.331   9.988   9.300   8.894  10.619  10.994  11.140  10.315   9.936   8.051
    8.512   9.595   6.290   7.014   9.408  10.776  10.045   8.774  10.835   9.429
   10.877   8.927   8.269   7.101  10.451   9.851   7.403  10.014  10.405   9.672
    8.246   7.107   7.801   7.159   7.315   8.654   7.482   8.689  10.990   9.325
    7.301   7.682   8.588   7.710   5.574   6.296   7.804   9.096  11.973  10.504
    6.597   5.579   7.419   6.685   5.275   8.589   7.121   8.791   9.986   9.110
    3.774   5.903   6.771   5.352   5.015   7.163   9.073   9.396   8.017   6.823

    1.300   9.725
   11.843  13.643  10.632  12.350  12.724  10.172  10.296  10.185  10.285  10.031
   10.199  12.013  12.841   9.528  11.925   8.559   9.490   8.255   9.192  10.274
   10.966  11.377  12.337   9.641  11.606  11.761  11.207  11.339   9.725   9.083
   10.915   9.909   9.718   8.739  10.567  10.999  11.007  10.825   9.798   7.942
    8.576   9.529   6.132   6.995   9.434  10.605   9.390   9.183  11.030   9.261
   10.675   8.611   8.450   7.078  10.696   9.581   7.733  10.306  10.270   9.810
    7.961   7.226   8.079   7.285   6.915   8.684   7.501   8.615  10.833  10.013
    6.857   7.520   8.646   7.653   5.776   6.603   7.966   9.098  11.875  10.309
    7.033   5.522   7.319   6.636   5.605   8.748   7.136   8.716   9.975   9.637
    3.814   6.295   6.374   5.627   4.938   7.158   8.969   9.754   7.395   6.540

    1.350   9.904
   11.717  13.675  10.694  11.958  12.724  10.515  10.298   9.965  10.361  10.572
    9.716  12.431  12.536   9.822  11.805   8.990   9.531   8.606   9.058   9.810
   10.659  10.989  12.429   9.650  11.589  12.012  11.042  11.414   9.685   8.877
   10.911  10.105  10.132   8.709  10.988  11.425  10.956  10.992   9.952   8.088
    8.791   9.471   6.187   7.231   9.437  10.027   9.647   9.238  10.901   8.935
   10.673   8.674   8.775   7.170  10.382   9.394   7.772  10.203   9.987   9.760
    8.133   7.316   8.163   7.150   7.091   8.514   6.832   8.566  11.629  10.243
    6.894   7.611   8.561   7.787   6.122   6.941   8.458   8.577  11.542  10.147
    6.818   5.559   7.322   6.400   6.074   8.624   7.633   9.096   9.584   9.599
    3.375   5.995   6.369   5.496   5.217   6.724   8.937  10.501   7.716   6.446

    1.400   9.411
   11.650  14.026  10.411  11.641  12.703  10.409  10.380   9.462  10.689  10.368
    9.825  12.469  12.196  10.085  12.010   9.115   9.550   8.451   8.754   9.521
   10.779  11.029  11.952   9.640  11.472  11.985  11.086  11.495  10.356   9.359
   10.927   9.893  10.033   8.796  10.856  11.439  11.297  10.837   9.734   8.220
    9.061   9.726   6.211   7.337   9.660  10.135   9.407   8.960  10.815   8.454
   10.667   8.740   8.674   7.848  10.256   9.411   7.968  10.244   9.787   9.493
    8.484   7.215   8.158   6.894   6.617   8.381   7.078   8.410  11.462   9.960
    7.102   7.285   8.706   7.769   5.844   6.789   8.459   8.185  11.437  10.348
    6.409   5.362   7.402   6.739   6.384   8.692   7.723   9.447   9.718   9.413
    3.312   6.012   6.397   5.803   5.045   6.771   8.646  10.581   7.753   6.711

    1.450   8.676
   10.977  14.108  10.697  11.819  12.757  10.146  10.622   9.273  10.666  10.034
    9.868  12.307  12.316   9.879  11.918   9.329   9.662   8.570   8.132   9.826
   11.143  10.884  12.434   9.515  11.812  11.913  11.163  12.037  10.364   9.656
   10.874  10.028  10.105   8.986  10.325  11.116  11.747  10.499   9.911   8.624
    9.043  10.163   6.303   7.781   9.674   9.731   9.336   9.276  10.932   8.277
   10.141   8.336   8.202   8.010  10.047   9.345   7.901  10.488   9.707   9.703
    8.176   7.386   7.886   6.966   6.433   8.315   7.202   8.965  11.548  10.300
    6.982   7.071   8.784   7.265   5.471   6.723   8.657   8.324  11.398  10.245
    6.794   6.019   6.935   6.337   6.076   9.089   7.789   9.194   9.799   9.478
    3.779   6.007   7.065   5.648   5.152   6.133   8.298  10.390   7.582   7.059

    1.500   8.368
   10.927  13.578  10.810  11.467  12.742   9.748  10.131   8.935  11.202   9.659
    9.872  12.119  12.822   9.406  12.409   9.537   9.724   8.848   8.288   9.959
   11.110  10.582  12.443  10.118  11.823  12.034  10.932  11.480  10.024   9.754
   11.070  10.190  10.462   8.476  10.148  11.131  11.141  10.333   9.763   8.846
    8.830  10.382   6.802   7.392   9.875   9.759   9.471   8.961  11.675   8.796
   10.136   8.766   7.987   7.930  10.333   8.945   8.077  10.585   9.398   9.675
    7.837   7.126   8.188   7.013   6.153   8.795   7.327   9.047  11.307   9.449
    6.854   7.126   8.514   7.554   5.688   6.627   8.599   8.425  11.403   9.939
    6.659   5.935   6.796   6.495   6.039   8.972   7.760   8.783   9.664   9.273
    3.754   5.399   7.421   5.682   5.237   5.563   8.198  10.280   7.815   7.133

    1.550   8.170
   10.912  13.351  10.475  11.012  12.561   9.497  10.320   8.555  11.209   9.298
   10.127  11.885  12.929   9.290  12.232  10.315   9.570   8.977   8.782  10.035
   10.961  10.672  12.276  10.136  12.161  12.320  11.421  11.262  10.187   9.712
   11.074  10.522   9.925   8.400   9.504  11.123  11.647  10.614   9.622   8.711
    8.821  10.017   6.767   7.082   9.283   9.991   9.041   8.639  11.002   8.611
    9.728   8.786   8.014   7.786  10.198   9.188   7.884  10.743   9.497   9.709
    8.361   6.877   8.243   6.705   6.287   8.346   7.533   8.768  11.457   9.648
    6.691   7.244   8.635   7.617   5.488   6.695   9.314   8.147  11.557   9.825
    6.610   6.179   7.152   6.347   5.892   8.791   7.979   8.500   9.635   9.083
    3.647   5.468   7.500   5.831   5.497   5.486   8.070   9.701   7.741   7.090

    1.600   8.293
   10.654  13.574  10.645  10.945  12.451   9.209  10.449   8.751  11.206   9.030
   10.762  12.128  12.692   9.454  11.901  10.676   9.385   9.079   8.781  10.040
   11.065  11.308  12.108   9.808  12.257  11.963  11.611  10.868  10.147  10.093
   10.927  10.823   9.648   8.272   9.421  11.466  11.564  10.347   9.603   8.239
    8.649  10.229   6.329   6.876   8.901   9.936   9.375   8.802  10.341   8.318
   10.402   8.751   8.115   7.796   9.851   8.827   7.991  10.531   9.266   9.624
    8.907   7.440   7.755   6.355   6.405   8.946   7.962   8.710  11.299   9.921
    6.993   7.662   8.480   7.659   5.233   6.968   9.404   8.344  11.803   9.846
    6.684   6.326   7.599   6.837   6.472   8.548   8.184   7.923   9.828   9.517
    3.817   5.093   7.919   6.299   5.479   6.180   7.598   9.558   7.761   7.445

    1.650   8.437
   11.115  13.339  10.475  11.311  12.877   9.289  10.285   8.739  10.877   8.750
   10.779  11.974  12.485  10.271  11.554   9.791   9.534   8.837   8.413   9.897
   10.954  11.047  12.427  10.094  12.409  11.777  12.052  10.583   9.761  10.063
   11.076  10.581   9.716   8.914   9.118  11.142  11.759   9.801   9.527   7.813
    8.432   9.812   6.682   6.745   8.744  10.238   9.146   9.584  10.021   7.691
   10.705   8.523   8.230   7.906   9.698   9.021   7.675  10.489   9.097   9.603
    8.754   7.298   7.998   6.872   5.888   8.833   7.687   8.951  11.258  10.030
    7.563   8.041   8.690   7.349   5.685   6.433   9.637   7.820  11.972   9.526
    7.072   5.783   7.957   6.770   6.260   8.438   7.895   7.771   9.987   9.612
    4.197   5.213   7.811   6.154   5.456   5.980   7.463   9.768   7.673   7.861

    1.700   8.539
   11.349  12.850  10.599  11.343  12.977   9.657  10.371   8.905  10.685   9.244
   11.219  12.447  12.505   9.943  12.007   9.970   9.605   8.852   8.329   9.804
   10.675  11.370  11.967   9.727  11.982  11.436  12.035  10.622  10.036  10.082
   10.939  10.800   9.370   8.948   8.887  10.929  11.624   8.997   9.549   8.145
    8.498   9.597   6.756   6.526   9.045  10.786   8.931   8.917  10.154   7.706
   10.955   8.411   8.541   7.901   9.504   9.450   7.294  10.556   8.698   9.324
    8.652   7.343   7.858   6.707   5.428   8.545   7.509   8.678  11.656   9.948
    7.812   7.606   8.916   7.386   5.506   6.626   9.459   8.010  12.104   9.784
    6.896   5.914   7.396   6.580   6.565   8.512   7.854   8.424  10.034   9.536
    4.142   5.345   7.085   6.906   5.347   5.654   7.348   9.833   7.843   7.650

    1.750   9.173
   11.665  12.786  10.834  11.302  12.805   9.833  10.439   8.994  11.249   8.751