
This full-field turbulence file was generated by TurbSim (v1.40, 12-Sep-2008) on 27-May-2021 at 14:32:08.

 | u-comp |  Y  x  Z  | Grid Resolution (Y x Z) | Time-step | Hub Elev | Mean U |
            10    10     15.556     15.556          0.050      89.60     25.00

 Z Coordinates (m):
  -70.000 -54.444 -38.889 -23.333  -7.778   7.778  23.333  38.889  54.444  70.000

 Y Coordinates (m):
  -70.000 -54.444 -38.889 -23.333  -7.778   7.778  23.333  38.889  54.444  70.000

    0.000  24.056
   21.784  28.601  24.385  26.811  27.299  23.984  23.251  27.444  23.927  21.087
   22.202  25.465  26.544  24.198  28.492  28.117  23.523  26.403  24.622  22.116
   24.571  21.556  21.242  24.979  25.870  26.621  27.741  25.291  25.122  21.964
   24.789  22.338  19.039  25.980  28.495  26.154  23.744  25.846  24.165  25.695
   20.780  23.659  24.094  24.958  28.859  23.744  21.572  23.594  22.104  21.849
   21.987  24.053  24.597  24.104  25.273  23.187  23.539  17.243  21.033  20.774
   20.559  23.022  24.429  22.315  24.229  25.247  22.978  15.896  18.183  16.921
   20.628  18.418  24.135  21.306  22.868  19.223  18.816  15.686  18.316  18.528
   19.129  18.999  19.631  19.592  17.609  19.754  14.213  19.116  18.427  15.957
   14.164  12.635  17.833  17.313  15.154  17.061   9.571  11.000  13.076  16.627

    0.050  22.944
   21.617  27.466  24.051  25.562  27.887  25.034  23.424  27.624  23.503  20.362
   22.433  24.631  25.440  24.103  29.067  28.066  23.200  27.917  24.906  22.137
   23.730  20.804  21.003  25.416  25.439  26.134  27.841  25.970  24.896  23.611
   24.369  21.712  18.586  26.808  29.344  26.161  24.726  26.410  25.483  25.456
   21.169  24.278  24.941  25.336  28.849  24.722  22.360  23.131  23.062  21.433
   22.572  24.466  25.040  24.146  25.443  22.069  23.123  19.209  20.916  21.203
   21.070  22.639  24.157  22.546  23.590  25.457  22.153  15.982  17.251  16.958
   19.609  19.973  22.870  21.090  23.711  19.643  19.312  16.348  18.630  18.476
   19.869  19.083  19.425  19.102  17.270  18.889  14.232  19.350  18.158  15.940
   14.518  13.368  17.320  17.041  14.725  15.519   9.093  10.487  13.243  17.162

    0.100  23.780
   21.920  27.816  24.201  25.475  28.257  24.343  23.538  26.623  23.310  20.749
   21.785  24.936  25.623  25.157  29.994  27.244  22.652  26.977  24.956  21.783
   23.936  20.583  22.237  25.997  24.784  25.198  27.105  25.896  25.897  22.793
   23.629  21.251  18.637  26.462  28.881  27.210  24.599  26.708  25.127  25.098
   22.541  23.709  25.476  24.318  28.958  25.035  22.196  22.375  22.833  21.280
   22.052  24.561  24.776  24.530  25.903  22.860  23.849  19.522  21.566  21.365
   21.386  22.744  24.509  23.104  22.637  25.011  22.366  16.720  16.886  17.958
   19.586  20.279  21.710  20.385  22.985  19.221  19.352  16.784  17.756  18.118
   19.830  18.246  19.786  18.349  18.472  19.118  14.281  19.377  17.366  16.515
   14.280  13.610  16.477  15.927  13.579  15.480   9.688  10.559  13.931  17.100

    0.150  24.181
   22.268  28.407  24.129  25.290  28.851  23.846  22.562  26.612  23.538  20.556
   22.798  24.834  25.616  26.236  29.465  27.335  22.966  26.864  24.985  22.117
   23.223  20.217  21.901  24.951  24.766  25.890  25.678  26.311  24.872  22.596
   23.011  21.439  19.731  26.255  28.035  28.062  25.751  26.781  25.442  25.790
   22.973  23.677  25.768  23.919  28.028  25.569  22.807  22.348  22.971  22.225
   22.967  24.633  23.269  24.513  26.030  23.190  24.889  20.190  21.427  20.898
   21.709  22.825  25.346  22.416  21.489  25.650  22.524  17.656  17.451  18.740
   19.485  19.712  21.422  20.332  23.594  18.446  18.742  16.420  17.910  17.840
   21.295  17.159  19.164  17.647  18.262  19.323  15.603  18.383  17.242  16.756
   14.498  14.311  16.333  15.477  12.871  15.754   9.473  10.841  13.642  16.594

    0.200  23.901
   22.633  28.003  24.366  25.835  29.337  23.855  22.319  25.232  22.919  19.967
   21.745  24.869  25.618  26.104  29.897  26.743  23.470  25.910  24.028  22.108
   23.509  20.335  21.750  23.928  25.445  26.043  25.709  27.284  24.754  22.614
   22.792  20.755  19.809  26.712  28.450  28.690  25.107  27.439  25.400  25.571
   22.805  24.149  25.725  23.894  27.924  25.694  23.390  21.520  22.086  22.483
   22.891  25.155  23.300  23.424  25.648  23.881  24.249  19.826  21.189  20.211
   21.186  23.289  24.809  22.807  20.586  25.427  22.746  17.565  18.174  19.044
   19.787  20.705  21.118  20.543  23.356  18.229  19.370  17.494  18.260  18.507
   20.133  17.173  19.796  18.251  18.376  20.042  16.037  17.781  17.800  17.415
   13.616  14.060  16.736  15.010  12.628  15.740   9.489  10.989  13.172  17.286

    0.250  24.165
   21.792  28.419  24.111  25.504  29.940  25.693  21.774  25.708  22.588  20.356
   20.389  25.451  25.256  24.608  29.829  27.472  24.229  25.414  23.997  21.682
   23.093  21.892  22.630  24.222  25.476  26.595  25.489  26.007  25.465  22.859
   22.545  21.908  19.453  26.514  28.552  28.064  25.028  28.831  24.733  25.078
   23.132  22.755  24.834  24.283  28.157  24.147  23.279  22.822  21.041  21.435
   21.863  25.794  24.614  23.478  26.127  23.893  23.397  20.006  20.826  20.767
   21.591  23.673  25.811  22.649  20.472  26.053  23.638  18.482  17.804  19.480
   19.321  19.597  21.142  19.874  24.730  19.673  19.114  17.362  18.813  18.942
   20.382  16.440  19.562  18.044  18.141  19.794  16.382  18.297  17.011  17.396
   13.482  14.645  17.305  15.038  12.754  15.935  10.074  10.592  13.448  17.673

    0.300  23.696
   22.284  28.582  23.823  24.903  29.322  25.586  22.174  26.083  23.065  20.550
   20.550  25.464  25.821  24.376  29.421  26.829  24.370  25.318  23.202  21.855
   23.942  21.862  22.080  24.640  26.398  27.129  25.664  25.512  25.762  22.803
   22.628  21.700  19.916  26.498  28.339  27.773  24.404  28.864  25.855  24.686
   23.723  23.210  24.791  25.814  28.875  24.523  23.235  23.272  22.214  21.384
   21.132  25.015  25.889  23.935  26.239  23.037  22.969  19.922  20.126  20.579
   22.620  23.383  27.025  22.342  20.967  24.531  24.189  18.470  17.677  19.479
   19.501  20.521  20.672  20.127  25.239  20.295  18.769  15.890  18.401  18.481
   20.039  17.632  18.713  17.551  17.598  20.897  16.277  18.046  15.773  17.564
   13.626  14.438  17.331  14.928  13.201  15.988   9.990  10.409  13.791  16.952

    0.350  24.301
   22.903  28.045  24.531  24.949  28.985  25.815  23.253  25.350  22.218  20.934
   21.161  25.668  24.858  23.262  30.503  26.395  23.671  25.231  23.843  22.203
   23.589  22.088  21.563  24.433  25.991  26.679  25.934  25.287  25.818  23.821
   22.502  22.535  19.989  25.343  28.823  27.164  25.106  29.847  26.355  24.494
   23.081  22.418  25.876  25.405  28.561  23.636  22.722  22.519  22.397  20.745
   20.747  25.952  25.334  24.310  25.065  24.317  24.104  20.804  20.080  21.118
   22.898  23.542  27.761  22.238  20.488  24.830  25.466  18.165  18.527  19.512
   20.023  21.116  21.432  21.046  24.017  20.832  17.677  15.256  18.495  19.382
   20.716  18.006  18.182  16.754  16.867  20.572  16.527  17.916  16.823  16.328
   13.006  14.527  16.889  15.090  13.657  15.320  10.444  10.631  14.009  16.864

    0.400  24.067
   23.659  26.972  24.078  25.079  29.318  25.837  24.534  25.182  22.859  20.485
   20.794  27.572  24.258  23.661  29.157  26.390  24.563  24.672  23.485  22.310
   23.337  21.558  21.938  24.958  25.793  26.090  26.002  24.887  26.186  24.139
   22.877  22.232  19.933  25.872  30.197  26.843  24.631  29.470  27.523  24.350
   22.679  22.471  26.426  25.245  27.945  23.899  22.949  21.350  22.717  20.954
   21.080  26.084  24.402  23.954  25.392  25.396  23.680  20.015  19.801  20.541
   24.610  24.035  27.120  22.063  19.998  24.810  25.512  18.604  18.556  19.037
   18.811  21.075  20.254  20.109  23.066  21.749  16.560  15.492  18.484  18.760
   21.520  18.406  18.268  17.594  16.570  20.625  16.174  17.150  17.841  15.655
   13.608  13.092  16.032  15.719  13.568  14.394   9.082  11.257  14.664  16.440

    0.450  23.201
   23.967  26.849  24.218  25.240  29.814  25.615  25.873  24.373  23.486  19.771
   21.425  26.853  24.069  23.729  28.133  27.397  24.598  24.047  23.271  22.728
   23.846  20.986  22.096  24.330  26.210  25.800  25.946  23.810  25.911  23.580
   23.522  22.404  20.740  26.746  30.957  26.753  23.781  27.717  27.406  25.064
   22.391  22.257  26.075  25.104  29.086  23.305  21.920  21.193  22.488  21.085
   22.804  25.520  24.949  24.424  25.722  24.178  23.498  19.933  20.653  20.347
   24.977  24.074  27.080  21.655  20.365  24.584  25.648  17.312  19.394  18.233
   19.258  20.329  20.257  20.208  22.164  21.078  16.792  15.382  19.267  18.317
   21.493  18.939  17.991  17.695  16.403  20.154  16.446  16.952  17.093  15.233
   13.415  13.452  15.421  15.391  13.628  15.627  10.124  11.138  15.090  16.192

    0.500  23.309
   24.205  26.803  23.371  25.430  30.287  24.207  25.311  25.529  23.932  18.925
   21.059  25.236  24.582  24.868  27.705  27.137  24.847  23.113  23.689  23.106
   23.237  20.823  21.975  24.231  26.225  24.822  25.350  23.518  26.118  24.443
   23.698  23.105  19.822  27.435  30.591  26.503  24.212  26.835  26.705  26.313
   21.763  22.368  27.136  25.079  29.835  23.307  20.626  21.479  22.020  20.922
   22.957  25.709  25.227  26.179  25.683  24.157  22.267  20.002  20.588  20.536
   24.154  23.958  26.124  21.618  19.402  24.753  25.336  17.595  19.851  17.784
   19.676  19.871  20.332  20.615  21.733  20.224  16.047  15.927  19.898  18.835
   20.229  18.763  16.679  17.107  16.851  18.949  15.871  17.128  17.112  15.633
   12.892  13.683  16.342  15.787  13.408  16.146  10.426  10.579  15.260  16.123

    0.550  23.534
   23.968  26.791  23.634  25.446  31.752  24.181  25.348  25.715  23.991  19.741
   21.449  24.693  24.120  24.445  27.128  26.843  25.412  22.289  24.000  22.448
   22.821  20.345  22.973  23.542  25.701  24.625  24.843  24.083  26.658  25.044
   24.946  23.433  20.029  26.319  30.661  26.384  24.856  27.235  27.389  26.532
   22.021  22.561  26.757  23.939  29.930  22.783  21.074  20.850  21.008  21.476
   23.083  24.468  25.848  25.730  24.531  23.583  21.916  19.742  20.421  20.278
   23.755  24.241  25.830  21.794  18.346  24.841  25.144  17.659  18.443  18.215
   20.497  19.348  20.688  21.558  21.198  19.439  14.790  15.575  20.532  18.223
   20.321  18.705  16.642  17.314  16.246  18.902  16.780  17.640  17.604  14.333
   13.680  13.694  15.921  16.184  12.927  16.864  10.452   9.649  14.562  16.973

    0.600  22.828
   23.143  26.290  23.142  24.837  30.032  24.427  24.306  26.119  24.579  20.047
   20.888  25.091  25.266  24.941  27.230  26.660  25.624  22.545  23.013  23.428
   23.538  20.405  23.863  24.377  25.980  24.827  24.641  24.932  24.864  24.662
   25.975  23.616  20.369  26.472  30.556  26.465  24.596  27.569  26.752  26.493
   21.622  23.822  26.306  24.014  29.296  22.230  21.484  23.278  20.602  20.396
   23.852  24.727  26.478  26.926  22.992  22.929  22.968  20.192  19.502  20.071
   24.298  24.254  25.719  21.759  18.923  24.562  25.562  18.279  17.147  18.716
   21.196  19.157  21.466  22.206  21.764  19.973  15.085  15.547  20.548  18.118
   19.400  17.941  15.493  16.684  15.964  18.054  16.535  16.439  16.558  15.848
   12.950  12.962  15.414  16.343  13.290  17.143   9.870   8.190  14.615  16.440

    0.650  22.895
   22.927  26.387  22.976  25.868  29.532  23.229  24.472  27.185  24.747  18.956
   20.168  24.884  25.100  25.630  27.209  25.963  25.405  24.040  22.551  23.200
   24.118  20.531  24.329  24.136  25.401  24.899  24.334  24.734  24.890  24.716
   26.009  23.539  19.743  25.815  30.284  25.858  25.330  26.665  26.015  25.769
   21.339  22.944  25.765  23.999  28.461  22.499  21.471  22.506  20.317  20.983
   23.530  24.779  26.155  27.725  23.535  23.047  24.073  19.821  19.797  20.030
   23.896  24.783  25.494  21.817  18.812  25.533  24.447  18.504  17.171  19.230
   21.074  19.799  21.406  20.462  21.532  19.770  15.408  14.121  19.226  17.632
   18.737  16.966  15.979  16.625  16.056  18.047  16.686  15.531  15.827  15.890
   13.636  13.743  15.217  16.580  13.498  16.953   9.702   7.912  15.171  16.180

    0.700  22.534
   22.790  26.417  23.295  25.389  29.206  23.225  24.328  27.001  23.704  18.090
   19.778  24.322  24.537  26.473  27.137  25.598  25.688  23.153  22.183  23.577
   24.042  20.990  24.729  24.608  25.633  25.395  24.718  25.518  25.393  24.942
   25.418  24.878  20.903  26.734  29.059  25.976  25.016  26.481  26.631  25.795
   21.203  23.416  25.532  24.593  29.036  23.684  21.014  22.886  20.689  22.367
   22.693  25.007  26.358  28.051  24.627  23.299  22.695  20.029  20.433  19.683
   23.270  24.537  26.173  22.385  18.819  24.730  24.737  18.599  17.642  19.039
   21.383  20.703  21.385  20.804  21.572  19.633  15.632  13.370  19.509  17.614
   18.398  16.905  17.146  17.102  16.474  17.428  17.513  15.742  15.844  15.029
   15.320  14.342  15.198  16.330  13.869  17.858  10.349   7.367  16.177  15.602

    0.750  21.728
   23.112  26.475  23.863  24.886  28.622  23.408  23.614  27.493  24.298  18.181
   20.116  23.758  24.398  25.681  27.159  24.963  25.753  23.318  22.135  23.446
   24.861  21.332  23.765  24.811  25.171  25.436  24.716  26.616  25.654  26.323
   25.419  24.223  21.309  26.744  29.397  26.227  23.820  26.899  26.731  25.237
   21.148  23.355  25.381  24.978  28.576  23.644  21.375  22.954  21.867  22.002
   23.029  25.156  25.755  27.753  24.557  23.868  22.701  21.269  20.734  20.406
   23.709  25.938  26.131  23.305  18.075  24.182  25.760  17.817  18.986  18.936
   21.044  21.463  21.986  21.200  20.908  19.844  15.654  13.629  19.535  17.981
   16.636  17.087  18.051  16.777  16.134  17.207  17.050  15.725  14.449  15.433
   15.296  14.501  16.282  16.961  14.383  17.989  11.357   7.276  15.000  15.828

    0.800  22.093
   22.412  25.921  24.693  25.129  28.386  22.612  23.506  28.023  24.785  18.439
   19.766  22.981  24.621  25.295  26.799  25.200  24.508  23.046  22.327  23.204
   25.071  20.712  23.410  26.082  24.597  25.540  23.645  25.711  25.715  25.504
   25.787  23.081  21.595  25.879  30.705  26.746  24.132  26.134  25.868  25.618
   21.326  22.987  24.469  25.435  28.090  23.097  21.127  23.541  22.147  22.477
   22.376  24.956  25.358  27.093  24.185  25.212  23.657  21.044  21.162  20.902
   24.684  26.566  27.015  23.368  17.948  23.747  24.875  18.021  18.767  19.313
   21.141  20.811  21.889  20.587  21.442  19.362  15.659  12.805  19.377  17.608
   16.490  17.172  18.305  17.294  15.117  16.982  16.998  16.550  14.700  16.333
   15.374  14.797  16.604  17.027  15.075  18.859  10.213   7.818  14.113  16.476

    0.850  22.036
   21.322  27.448  24.611  25.236  27.050  23.115  22.598  27.575  25.135  19.867
   20.065  23.366  24.915  24.465  26.634  24.379  23.308  22.508  23.156  23.066
   24.676  20.896  23.647  25.068  25.990  25.207  23.610  24.825  26.290  24.660
   24.444  22.879  21.182  25.057  29.543  27.340  25.058  25.817  24.381  25.638
   21.678  23.886  22.830  25.829  27.098  23.732  21.234  22.739  22.220  23.546
   21.577  25.295  25.724  26.077  24.530  24.933  24.346  20.624  22.067  20.354
   24.797  26.668  26.873  23.485  17.509  23.072  24.455  18.664  18.933  19.770
   20.499  19.660  20.598  20.385  21.362  18.629  14.623  13.695  17.943  17.647
   18.859  17.186  17.911  17.127  15.493  16.575  17.465  16.267  15.138  16.104
   14.991  15.591  16.908  16.651  15.055  18.748  10.277   8.576  13.898  16.573

    0.900  23.166
   21.623  26.698  23.709  25.415  26.889  23.174  22.529  27.523  24.813  20.469
   20.324  21.546  25.674  24.267  26.619  23.920  23.896  23.294  22.688  23.717
   25.363  21.137  23.183  25.558  26.550  24.894  23.134  25.179  26.907  23.725
   24.585  22.262  20.046  25.936  30.192  28.631  24.107  24.362  24.497  24.867
   21.356  24.052  22.634  24.500  27.729  23.786  20.850  22.434  21.498  24.490
   21.853  25.654  25.592  26.131  25.596  24.226  24.145  21.020  22.252  21.444
   24.083  26.434  27.743  22.674  18.437  22.831  23.858  18.038  19.001  19.586
   20.499  19.750  21.457  20.022  21.571  17.504  14.412  13.911  17.434  18.150
   19.440  17.522  16.843  17.435  15.986  15.365  16.752  15.783  16.015  15.019
   14.706  15.201  16.282  16.599  14.649  17.191  10.673   9.041  12.737  16.202

    0.950  22.773
   21.774  26.737  23.686  24.438  26.755  24.213  22.184  27.480  24.701  20.701
   20.724  21.720  24.733  24.791  26.620  23.824  24.073  23.932  23.109  25.120
   26.030  21.878  23.706  25.868  26.569  25.475  22.675  24.604  25.979  23.742
   25.135  22.996  19.777  25.277  30.820  28.577  24.111  25.383  24.763  25.734
   21.878  24.199  22.468  24.131  27.104  23.839  21.840  23.143  21.730  24.310
   22.132  25.015  25.053  24.640  25.182  25.073  23.721  20.693  22.509  20.781
   24.304  25.974  26.537  21.333  18.733  24.089  23.954  18.231  18.153  19.634
   20.313  20.422  20.631  20.377  21.119  18.021  14.390  15.098  17.636  17.732
   18.639  16.897  18.322  18.018  16.188  15.686  16.440  15.139  15.921  14.961
   14.246  16.000  15.500  17.011  14.376  17.051  11.257  10.165  12.571  15.831

    1.000  22.255
   21.462  26.819  23.618  24.901  26.675  23.931  21.626  27.427  25.073  20.807
   20.422  22.932  25.361  24.207  26.044  24.519  24.858  23.507  23.516  23.959
   25.465  21.691  24.307  24.899  25.423  25.353  22.433  24.904  25.783  23.767
   25.294  22.175  20.068  24.294  30.261  28.815  24.905  25.450  24.246  25.930
   22.197  24.319  21.567  23.336  28.059  23.722  21.494  22.184  21.328  23.489
   22.522  25.661  24.795  25.288  24.700  24.453  24.126  19.822  23.163  20.032
   23.676  25.855  25.086  21.543  18.373  22.646  23.747  18.000  18.622  19.891
   20.681  20.714  19.350  19.369  20.423  18.832  14.959  15.247  17.180  16.732
   18.921  16.972  18.490  17.507  16.745  16.629  17.816  14.631  15.178  15.655
   14.009  15.502  14.628  16.921  14.164  16.114  12.253   9.987  11.184  16.066

    1.050  22.249
   20.753  27.394  22.629  25.244  26.097  22.930  22.099  27.807  26.112  19.927
   20.283  22.827  25.875  23.844  24.650  26.229  23.840  22.246  23.466  23.172
   25.974  22.160  24.598  23.951  25.693  25.923  22.641  25.005  24.946  23.644
   25.652  21.931  20.796  24.905  30.577  27.212  25.569  25.433  24.081  25.006
   22.145  24.215  22.058  23.467  28.945  23.130  20.824  22.482  21.773  23.007
   22.870  25.809  24.706  25.263  23.529  22.694  23.571  20.111  22.716  20.572
   23.737  25.591  24.358  22.739  17.258  22.779  23.862  17.614  18.445  19.548
   20.521  21.023  20.773  18.717  19.621  19.411  15.081  15.217  17.190  15.289
   20.088  16.941  19.125  18.161  15.351  16.602  17.533  14.964  15.654  15.501
   14.380  15.374  15.414  16.792  13.547  14.671  11.951  10.533  10.725  16.223

    1.100  22.951
   19.348  27.250  23.982  25.839  27.278  22.673  22.371  26.831  25.534  19.764
   20.099  23.011  26.456  24.000  24.334  26.816  24.013  22.758  24.713  24.359
   26.129  21.685  24.932  24.540  26.040  25.661  22.267  24.109  25.883  23.608
   26.300  22.422  20.461  25.155  30.274  27.582  24.984  25.331  25.298  24.311
   22.413  24.041  21.942  24.460  28.379  23.879  21.321  23.385  22.075  21.570
   23.202  26.436  25.231  24.346  23.633  22.707  24.603  21.723  22.766  20.802
   24.037  25.309  26.587  22.666  16.590  22.928  23.697  17.701  17.943  18.550
   20.697  20.577  20.404  19.145  19.861  20.164  14.891  15.054  17.188  16.167
   21.326  17.406  19.004  18.235  15.798  16.892  18.447  15.514  16.110  15.090
   13.516  15.923  14.733  16.692  14.119  14.273  12.184  10.752  10.216  15.836

    1.150  23.269
   18.514  27.636  23.801  25.450  28.088  22.340  22.641  26.878  26.592  19.286
   21.407  22.683  26.002  22.676  23.849  26.567  23.752  23.159  24.630  23.901
   25.650  21.429  25.593  24.589  26.513  24.781  22.463  24.261  25.880  23.061
   25.595  22.203  20.552  24.725  30.696  27.991  24.355  26.085  24.960  24.586
   21.992  23.808  22.264  24.679  29.889  24.071  21.828  22.952  22.456  22.086
   23.178  26.102  24.925  23.809  23.135  22.864  24.335  21.165  23.056  20.403
   23.523  25.317  26.290  21.626  16.323  23.709  23.294  17.814  18.160  19.701
   20.377  19.932  19.828  18.752  21.638  20.079  15.036  14.770  17.319  16.254
   21.646  17.492  19.232  18.372  16.859  16.667  17.948  15.502  14.586  15.111
   13.014  15.582  15.090  16.843  13.190  14.172  11.817  10.777   9.885  15.525

    1.200  23.377
   19.349  27.161  24.270  27.115  27.621  22.807  22.759  26.367  27.308  20.162
   21.303  22.147  25.956  23.209  23.512  26.174  23.436  23.632  25.066  24.259
   26.346  21.168  25.701  24.154  27.920  24.305  22.393  24.340  25.396  23.241
   25.621  22.967  20.731  23.966  29.698  27.981  23.837  26.519  24.458  25.037
   21.128  23.904  22.284  24.792  29.268  24.850  21.703  22.658  22.031  22.087
   23.835  27.513  25.918  24.218  23.269  22.600  24.973  21.621  23.732  20.639
   23.579  24.018  26.233  21.238  17.997  22.711  23.555  18.600  17.372  19.566
   19.613  19.280  20.264  18.920  21.180  20.053  16.197  13.513  17.407  16.684
   21.181  16.546  19.660  18.165  17.295  16.417  17.530  15.045  14.025  14.947
   13.391  15.468  15.124  15.722  13.665  14.893  11.651  11.141  10.927  15.821

    1.250  23.843
   19.728  25.568  24.228  26.661  26.456  22.496  22.407  24.854  27.167  20.657
   20.775  21.439  27.242  23.426  24.744  26.493  24.016  23.712  24.718  24.018
   25.029  21.400  25.377  24.475  28.609  23.129  22.239  23.854  25.328  22.568
   24.070  22.039  21.101  24.409  29.092  27.138  23.803  25.987  24.830  24.881
   21.452  23.778  22.135  24.804  28.522  24.967  21.057  23.396  20.939  21.111
   22.912  27.841  26.344  24.967  23.716  22.475  23.696  22.314  23.588  21.385
   24.290  24.669  25.564  20.903  19.067  22.850  24.402  18.540  17.541  19.540
   20.386  20.274  19.973  18.653  21.096  19.725  15.579  13.360  17.505  16.268
   21.016  16.337  20.281  18.268  17.772  16.250  17.261  15.281  13.801  14.120
   13.333  15.229  15.105  15.350  14.479  15.681  12.498  12.315  10.621  16.943

    1.300  24.104
   19.779  25.512  24.427  25.226  27.184  21.567  23.105  25.074  27.346  21.078
   20.648  22.199  27.624  22.917  25.125  26.711  24.517  23.100  24.800  22.919
   23.846  21.188  24.355  24.466  28.234  23.503  23.454  23.835  25.381  22.257
   24.007  21.974  21.517  24.709  29.222  25.952  23.520  25.439  24.535  24.151
   22.192  23.768  22.651  24.642  28.294  24.472  21.326  22.939  21.897  21.136
   21.985  26.411  25.828  24.953  24.429  21.274  22.910  21.787  22.969  21.574
   24.138  24.460  25.343  20.927  18.726  22.900  24.941  18.638  18.470  19.039
   21.025  20.458  20.054  18.666  20.824  21.007  15.031  13.721  18.162  16.251
   20.648  15.310  20.336  17.641  17.939  15.677  17.191  15.954  12.372  14.182
   12.230  16.420  16.100  14.927  14.565  15.281  13.647  11.371   9.562  17.693

    1.350  24.142
   20.211  24.792  25.880  25.694  26.968  19.608  23.300  25.031  27.508  21.046
   21.192  21.308  27.723  22.605  24.900  25.843  23.389  22.134  24.895  22.493
   23.826  21.499  23.748  24.774  27.407  23.279  24.798  23.907  24.647  22.224
   24.620  21.197  22.301  24.835  29.033  25.827  24.266  26.905  23.485  25.148
   22.211  23.922  23.184  24.388  29.009  24.590  20.888  23.097  22.322  22.304
   22.949  26.881  27.174  24.699  23.785  20.526  22.426  22.036  22.466  21.655
   24.033  25.262  24.519  20.329  19.397  23.541  24.131  19.073  19.026  18.377
   20.771  20.048  19.190  18.112  20.111  20.590  14.955  13.485  16.542  16.870
   20.683  15.904  20.249  17.312  19.408  15.866  18.231  16.135  11.638  14.705
   12.621  16.094  17.276  15.037  15.072  15.047  14.404  10.190   9.380  17.097

    1.400  24.370
   20.295  24.925  25.829  25.634  25.697  20.048  23.688  24.253  28.010  20.405
   21.448  20.358  26.420  23.811  24.747  25.485  22.547  21.934  25.158  21.916
   23.831  21.249  24.213  24.466  27.580  23.656  24.487  23.523  24.560  22.043
   24.681  19.699  22.671  24.775  28.233  25.514  23.924  27.131  23.849  25.334
   21.909  23.637  22.929  25.355  28.522  23.477  20.481  23.930  22.411  22.132
   22.659  26.496  26.325  25.893  22.807  21.256  22.560  21.289  22.096  21.145
   23.254  24.583  24.616  20.525  20.027  23.730  24.507  18.858  18.558  18.401
   20.931  20.238  18.924  18.674  20.934  20.294  15.121  13.546  16.405  17.081
   20.731  17.020  18.617  16.559  18.781  16.605  18.087  15.953  11.419  14.494
   13.461  17.638  17.022  14.826  15.035  15.105  13.723  11.036   9.446  17.206

    1.450  24.352
   20.450  25.383  24.431  25.117  25.189  20.370  23.485  22.924  27.746  21.443
   21.750  20.879  25.923  23.322  25.307  24.749  21.956  22.784  25.933  20.903
   22.863  21.419  23.882  25.178  28.353  22.823  24.294  21.860  24.399  21.671
   24.304  20.290  21.556  25.548  28.180  23.903  23.236  27.812  23.975  24.989
   21.641  23.477  23.510  24.898  29.006  23.176  19.386  24.025  21.612  21.392
   23.344  24.762  26.925  25.314  22.530  21.605  21.480  21.082  22.060  19.823
   23.916  25.048  23.697  21.432  20.327  24.076  24.627  17.868  18.537  19.338
   21.408  20.627  19.144  18.305  20.708  20.522  14.383  13.356  16.436  17.332
   20.743  17.045  19.424  16.284  18.893  15.805  17.906  16.222  11.440  14.053
   13.139  17.354  16.197  15.006  15.245  17.160  13.148  11.662   9.901  16.930

    1.500  24.591
   21.208  25.510  25.054  24.980  25.592  20.747  23.763  23.361  27.445  20.884
   21.045  21.470  26.149  24.119  25.848  24.026  22.783  23.541  25.153  21.193
   23.161  21.185  22.744  24.450  27.845  22.759  24.501  22.125  24.536  22.911
   23.039  21.349  20.639  25.295  27.197  24.047  22.839  27.273  23.935  25.441
   21.775  23.331  23.908  24.420  28.478  23.115  20.667  25.071  21.255  21.772
   23.478  25.111  25.601  25.146  22.716  21.703  21.475  20.941  21.980  19.510
   24.146  25.004  23.771  22.585  19.854  24.715  24.558  17.346  18.071  19.997
   20.549  21.640  19.542  18.255  20.270  20.237  14.490  12.409  17.253  17.833
   21.248  17.444  20.106  16.663  19.789  16.588  17.813  15.256  10.846  13.840
   13.121  17.631  15.972  15.961  15.960  16.031  12.155  11.030   9.959  16.754

    1.550  24.459
   21.921  25.303  24.731  25.387  25.899  21.190  23.450  23.163  27.673  20.812
   20.624  21.022  26.853  22.921  25.817  24.312  23.007  24.255  24.273  23.470
   22.366  20.694  23.880  23.879  28.061  23.172  24.823  23.243  24.590  22.406
   21.697  22.620  20.030  25.272  28.005  24.343  23.556  26.849  23.513  24.882
   22.169  23.062  23.644  25.208  27.965  22.294  20.533  24.562  21.405  23.142
   23.090  25.683  24.407  24.985  22.935  21.488  21.793  21.242  21.955  19.433
   24.210  25.274  23.443  22.188  18.795  25.002  23.394  19.136  18.848  20.002
   19.926  22.118  20.878  17.709  20.429  21.263  14.312  13.186  18.430  18.064
   21.218  17.369  21.304  15.938  19.700  17.355  17.662  15.179  10.246  13.843
   13.834  16.934  15.000  15.785  16.515  15.852  12.481  11.382   9.804  15.971

    1.600  24.486
   21.893  25.870  24.063  25.509  24.943  21.020  24.030  23.211  27.901  21.798
   21.842  20.935  27.122  23.072  25.282  23.012  23.314  22.423  24.237  22.544
   20.373  19.716  24.290  22.554  27.793  24.807  25.203  23.450  24.076  22.922
   21.147  22.794  18.736  25.521  28.048  23.644  24.563  26.269  24.840  24.316
   23.456  23.356  23.303  25.869  26.811  23.424  19.876  24.971  21.780  23.074
   24.123  25.769  23.466  25.466  23.396  21.923  22.087  21.997  21.125  19.786
   23.701  26.696  23.162  21.723  18.223  23.227  23.134  18.926  19.418  19.607
   19.852  21.501  20.567  17.477  20.749  21.399  13.881  14.043  19.447  16.538
   20.896  17.957  21.657  14.616  18.768  16.128  17.446  15.182  11.047  14.142
   14.364  16.654  16.594  16.167  16.531  15.850  12.421  11.392   9.598  16.624

    1.650  23.884
   21.851  26.537  24.715  25.457  24.246  21.728  24.749  23.979  27.991  21.928
   20.342  21.785  26.279  23.474  26.412  22.404  22.770  22.158  25.670  22.666
   20.377  19.192  24.508  23.243  27.238  24.623  24.501  24.464  24.900  22.203
   22.584  23.132  19.572  25.846  27.991  23.630  24.494  25.153  24.361  24.001
   23.611  24.166  23.997  24.917  26.576  24.318  20.409  26.136  21.527  22.777
   25.157  26.391  23.644  26.687  24.072  22.122  21.767  21.017  21.498  20.023
   23.561  26.830  22.744  21.637  18.529  23.761  22.241  18.644  19.861  19.215
   20.502  20.592  20.184  17.964  20.502  21.655  15.296  14.810  18.432  15.877
   20.829  18.833  21.597  14.775  19.021  15.899  17.251  16.268  11.932  13.633
   13.881  16.749  17.979  14.476  16.888  15.054  11.942  11.502   9.815  16.551

    1.700  23.900
   21.528  25.676  25.223  25.076  24.554  20.845  24.890  24.313  28.083  23.080
   19.448  22.855  26.528  22.506  25.689  22.731  22.339  22.663  26.199  22.761
   21.664  18.930  24.420  22.855  27.071  25.308  23.816  24.652  25.438  21.784
   21.993  22.644  20.026  25.929  27.178  23.509  24.814  24.216  24.602  24.675
   23.537  24.371  24.012  25.033  27.170  24.719  20.723  25.497  22.567  22.362
   24.689  25.640  24.462  26.611  23.047  21.860  21.506  20.995  22.323  20.960
   22.937  26.794  23.455  21.552  18.303  24.284  21.856  19.012  19.611  19.895
   21.081  20.892  21.133  17.725  20.780  21.504  15.452  14.490  18.349  16.094
   20.425  19.097  21.497  14.905  18.377  16.189  16.355  15.897  11.383  14.549
   14.079  16.499  18.103  14.499  16.696  15.577  12.054  12.171  10.239  16.780

    1.750  23.632
   23.065  25.849  25.324  25.503  24.216  19.794  24.865  24.892  26.824  23.764