
This full-field turbulence file was generated by TurbSim (v1.40, 12-Sep-2008) on 27-May-2021 at 14:32:03.

 | u-comp |  Y  x  Z  | Grid Resolution (Y x Z) | Time-step | Hub Elev | Mean U |
            10    10     15.556     15.556          0.050      89.60     23.00

 Z Coordinates (m):
  -70.000 -54.444 -38.889 -23.333  -7.778   7.778  23.333  38.889  54.444  70.000

 Y Coordinates (m):
  -70.000 -54.444 -38.889 -23.333  -7.778   7.778  23.333  38.889  54.444  70.000

    0.000  18.578
   25.960  27.174  25.333  24.602  20.192  16.424  19.014  17.906  23.995  23.854
   23.568  24.277  22.046  19.686  19.560  18.460  17.694  17.803  19.590  20.623
   26.009  23.565  22.300  18.671  20.091  20.563  17.019  17.377  17.436  17.779
   24.429  23.382  20.648  20.825  16.928  19.391  17.479  17.625  19.129  21.709
   18.986  21.864  17.504  17.933  17.739  16.970  18.161  21.324  17.066  22.131
   17.774  20.841  18.677  18.871  16.895  17.330  13.609  14.510  15.689  20.369
   16.462  18.645  18.099  15.877  21.256  14.637  16.839  15.543  19.247  18.993
   17.221  13.428  17.458  20.078  13.556  11.575  10.600  14.867  16.803  18.740
   16.852  14.808  15.295  18.249  12.198   8.790   8.843  15.254  14.412  15.387
   12.589  11.102  13.396  12.561  11.829  11.035   5.156  10.619  11.620  12.755

    0.050  17.698
   25.353  26.812  24.308  24.793  20.706  17.231  17.913  18.717  24.182  23.325
   23.803  23.639  22.098  19.610  19.153  18.812  17.846  18.854  20.081  21.319
   24.842  23.557  22.045  18.140  19.561  19.979  17.202  17.658  17.288  19.143
   24.389  23.781  20.951  21.098  18.140  19.110  18.106  18.273  19.641  21.854
   18.721  22.495  17.477  18.212  18.055  17.435  18.517  21.076  17.673  21.751
   18.274  21.029  19.319  18.404  16.918  15.999  13.860  15.699  15.073  21.094
   17.312  18.736  17.866  15.416  21.004  15.338  17.100  15.523  19.074  18.520
   16.449  14.272  16.809  20.018  14.518  11.977  11.152  15.083  17.423  19.242
   17.334  14.785  15.064  17.734  11.448   8.166   8.393  15.234  14.435  15.134
   12.940  11.752  12.908  12.389  11.390   9.683   4.886  10.060  11.357  13.370

    0.100  17.680
   25.383  26.435  24.750  24.273  21.039  17.358  17.679  19.417  24.111  23.253
   24.191  23.807  21.846  19.231  18.924  19.356  17.260  19.854  20.187  21.665
   25.568  23.016  21.361  19.222  20.720  20.358  17.399  18.502  16.608  20.113
   24.567  22.875  19.967  22.075  18.034  18.730  17.656  17.898  20.718  21.923
   19.299  23.172  18.066  19.239  17.990  17.267  18.921  21.116  17.921  21.180
   17.394  21.369  20.136  18.036  16.760  15.844  12.601  16.069  15.098  20.399
   17.287  17.912  17.263  16.764  20.948  13.751  15.953  15.314  17.759  18.404
   16.471  15.711  15.936  19.368  13.659  12.577  11.423  15.666  16.782  18.752
   17.087  14.649  15.596  17.515  12.939   7.715   8.353  15.600  13.924  15.734
   12.702  12.014  12.105  11.256  10.425   9.208   5.348  10.221  12.095  13.534

    0.150  16.347
   25.480  25.594  24.553  23.566  20.950  17.305  18.614  19.630  23.926  22.094
   23.297  23.724  21.637  20.118  19.283  17.766  18.249  20.462  19.495  21.341
   25.260  22.954  22.133  18.904  20.352  19.802  18.379  19.025  17.187  20.475
   23.985  22.022  19.865  22.192  18.992  19.087  16.568  18.491  20.468  21.351
   19.989  22.359  17.477  18.621  19.187  17.069  18.212  20.947  17.591  20.242
   16.779  21.208  20.667  18.671  16.905  16.116  13.316  16.194  15.674  21.351
   18.194  18.607  18.076  16.111  21.078  14.439  17.107  15.797  17.925  18.901
   16.512  14.291  15.737  19.160  13.443  11.817  10.979  15.189  16.238  18.693
   18.559  13.116  15.142  16.247  12.982   7.909   8.676  15.248  13.478  15.576
   12.924  12.675  11.898  10.841   9.522   9.709   5.519  10.456  11.796  13.113

    0.200  16.065
   26.149  25.336  24.762  24.376  19.980  16.220  18.671  18.548  23.197  22.023
   22.524  24.270  21.981  19.675  20.192  17.511  17.660  19.544  19.315  21.326
   25.808  23.966  22.770  19.590  20.242  18.871  18.856  18.328  17.600  19.877
   24.264  23.433  19.419  21.561  18.928  18.415  17.162  19.033  19.096  20.737
   20.482  21.373  17.642  18.599  18.705  15.909  17.942  21.592  16.953  19.528
   16.883  21.194  20.069  19.079  17.595  15.631  13.958  16.721  15.344  21.606
   18.487  17.474  18.511  15.996  20.555  13.912  16.554  16.404  17.317  19.054
   16.735  15.422  15.470  19.146  13.390  11.206  10.532  14.659  16.162  17.800
   18.172  13.383  15.463  16.925  13.283   7.934   9.595  14.127  14.044  16.349
   12.062  12.457  12.283  10.268   9.284   9.304   5.068  10.898  11.164  13.422

    0.250  17.024
   25.919  25.123  24.875  24.994  21.070  16.164  18.787  17.545  22.482  21.597
   21.883  24.510  20.373  18.320  20.770  18.229  17.182  18.936  19.956  21.110
   25.111  24.389  24.132  20.255  19.517  19.201  17.953  17.803  18.756  20.197
   24.113  23.494  19.581  21.947  17.928  18.065  16.371  19.144  19.041  21.238
   21.481  22.506  17.461  19.468  19.159  16.689  17.932  22.997  18.139  19.763
   17.562  20.342  19.214  19.308  16.886  15.408  14.485  16.998  15.220  21.176
   18.210  18.204  17.615  15.994  20.496  13.318  16.403  15.608  18.295  18.874
   17.272  15.421  15.601  19.786  11.989   9.896  11.123  15.844  16.209  18.295
   17.736  12.007  16.381  16.908  13.639   8.148   9.729  14.103  14.909  16.510
   11.890  12.994  12.883  10.225   9.048   9.727   6.023  10.701  10.905  14.606

    0.300  15.734
   24.546  25.369  25.148  24.514  21.037  17.987  18.757  17.513  22.151  21.996
   21.056  25.517  21.475  17.910  20.492  18.503  17.635  19.534  20.955  21.354
   25.265  24.178  23.787  20.874  19.807  19.257  18.500  16.913  18.277  20.845
   23.954  22.472  20.057  22.083  18.146  18.610  16.508  17.754  19.970  21.095
   21.039  22.998  18.311  19.617  19.168  17.828  18.136  22.311  19.034  19.680
   17.752  21.408  18.139  18.735  16.415  16.098  15.740  17.146  15.290  21.081
   17.667  18.170  16.950  16.037  19.271  14.666  16.793  15.599  18.995  19.053
   16.627  14.461  15.556  18.580  12.742  10.260  11.041  16.955  16.742  18.801
   17.814  12.010  16.127  17.438  13.858   7.598  10.118  14.278  14.350  17.393
   12.066  12.864  13.109  10.021   9.480   9.536   5.624  10.505  11.025  14.337

    0.350  17.184
   24.789  24.881  25.100  24.581  20.803  17.558  18.422  18.388  21.113  21.777
   20.867  26.543  21.147  19.513  19.433  18.463  18.774  19.490  20.446  20.496
   26.540  23.584  23.978  21.137  20.809  19.533  18.346  16.951  18.433  19.525
   24.261  22.647  20.737  22.179  17.257  18.297  16.329  18.023  19.586  21.251
   21.041  22.552  18.749  18.747  18.909  16.706  17.486  22.067  18.998  20.250
   17.873  22.206  16.775  18.405  15.508  17.616  16.654  17.965  15.393  21.272
   18.208  18.595  16.238  16.364  19.200  14.651  16.297  16.044  19.060  19.011
   16.971  14.250  14.918  18.360  13.762  10.178  11.764  17.416  17.331  18.048
   17.213  12.404  15.998  16.430  13.767   9.034  10.180  14.375  12.675  18.327
   11.436  12.994  12.811   9.956   9.778   9.519   6.744  10.484  10.895  14.530

    0.400  17.977
   24.988  24.871  23.939  24.184  21.486  16.720  18.252  18.303  21.466  22.043
   21.724  26.469  21.302  19.526  18.492  18.258  19.299  19.052  19.951  20.688
   26.597  23.825  23.643  20.612  20.605  19.803  18.077  16.568  18.685  19.086
   23.765  23.426  20.378  20.975  16.914  18.445  15.707  17.298  19.755  21.343
   20.659  22.573  19.622  18.131  18.038  17.153  17.941  22.116  19.059  19.320
   18.558  21.969  15.886  17.792  16.595  18.576  16.464  17.329  14.969  21.305
   17.877  18.434  15.884  15.600  19.524  14.825  15.756  16.134  18.968  18.568
   18.233  14.721  16.050  18.964  14.257   9.044  12.412  17.300  17.229  17.869
   18.209  12.469  15.566  15.946  13.436   8.385  10.537  14.768  12.429  18.791
   11.994  11.638  12.117  10.525  10.036   7.665   5.460  11.142  11.015  14.391

    0.450  17.681
   24.747  24.586  23.950  24.819  21.712  18.064  17.363  18.960  21.150  21.432
   20.803  26.486  21.838  17.998  18.431  18.971  18.711  19.071  19.940  20.707
   26.740  23.972  23.340  20.554  21.381  19.648  18.791  15.961  18.216  18.460
   23.467  23.260  19.694  20.975  16.411  18.296  17.610  17.705  18.682  22.289
   20.997  23.159  19.372  18.071  16.716  17.282  18.308  21.693  18.885  19.062
   19.447  21.432  16.661  16.569  16.650  17.636  16.637  16.548  15.029  20.182
   16.429  17.828  16.402  16.079  19.693  14.003  15.963  14.776  19.845  18.508
   18.123  15.141  16.468  19.790  15.054   9.498  12.503  17.186  18.246  18.669
   19.222  12.775  16.495  16.249  13.099   9.571  10.467  14.461  13.308  18.856
   11.893  11.654  11.200  10.346   9.827   7.927   5.374  12.026  11.515  14.433

    0.500  17.480
   24.609  24.880  24.112  24.848  22.018  17.684  18.489  19.493  20.997  21.073
   22.014  26.011  22.016  18.807  18.043  19.141  19.394  19.187  19.720  19.766
   25.922  23.806  22.685  20.988  21.573  19.856  18.553  15.860  17.026  18.281
   24.110  22.770  19.816  20.643  16.430  18.013  17.549  18.718  19.308  22.040
   21.430  22.701  18.362  17.139  16.598  17.086  19.765  19.855  19.080  20.418
   20.047  22.172  15.976  18.135  17.517  17.317  17.373  17.079  15.548  20.348
   15.909  18.066  15.352  15.680  19.156  14.762  15.504  15.372  20.730  17.624
   17.844  15.938  16.215  19.290  15.017   9.297  11.312  17.572  17.568  19.055
   20.043  13.546  16.783  16.888  12.579  10.009  10.948  14.052  13.288  18.416
   11.287  12.002  11.942  10.289  10.106   8.209   5.997  12.356  12.026  13.780

    0.550  18.077
   24.236  25.015  24.885  23.365  23.081  17.748  19.069  19.052  21.518  21.322
   21.280  25.347  22.633  19.244  18.822  19.522  19.280  19.212  19.272  20.578
   25.564  24.663  22.544  20.735  20.948  18.793  18.037  15.716  17.242  18.231
   24.527  22.829  20.302  18.836  16.752  17.999  17.841  18.680  19.811  22.151
   20.710  23.808  18.380  17.647  16.407  16.801  19.740  21.900  18.930  19.394
   19.047  22.434  16.427  18.384  18.038  17.344  16.773  16.982  15.568  20.250
   15.863  17.940  15.665  16.119  17.803  14.569  15.331  15.271  21.100  18.080
   17.973  16.073  16.877  19.855  15.887  10.673  12.080  16.522  18.215  18.226
   19.532  13.712  16.464  16.276  13.124   9.765  10.395  13.166  12.559  19.559
   12.089  11.961  11.979  10.848   9.190   8.588   6.363  12.892  12.393  14.004

    0.600  18.567
   24.027  24.561  24.614  24.004  22.988  18.904  18.860  17.804  20.664  21.894
   20.639  25.763  23.672  19.601  18.794  19.655  18.387  19.359  18.707  21.890
   25.447  23.703  23.099  20.017  21.121  18.840  18.685  14.784  17.871  18.317
   24.932  22.360  21.607  19.853  16.940  18.330  17.770  19.422  20.855  22.156
   20.742  22.887  18.486  18.230  15.432  16.505  19.784  22.548  18.983  18.704
   19.002  21.510  15.529  17.883  19.313  18.031  16.303  16.631  15.952  20.111
   16.328  17.747  15.860  16.001  18.395  13.971  15.585  15.318  20.420  17.561
   16.973  17.274  16.398  18.204  16.192  11.097  12.569  17.209  17.845  18.760
   20.810  14.842  17.128  17.242  13.178  10.284  10.186  13.531  12.651  19.798
   11.432  11.245  11.261  10.861   9.253   9.176   6.287  12.346  11.633  14.776

    0.650  18.546
   23.978  24.034  24.290  23.115  21.643  19.629  18.696  17.551  20.600  22.217
   20.283  25.000  23.264  19.418  18.508  19.179  18.939  19.501  18.805  22.047
   24.670  23.727  22.914  20.100  20.718  18.893  17.934  14.889  18.887  18.851
   25.275  21.751  21.495  19.738  16.937  18.718  17.189  20.612  21.969  22.304
   20.894  21.773  18.741  17.379  15.537  16.862  20.024  22.449  19.518  18.044
   19.206  21.612  16.561  17.266  19.132  17.590  14.771  16.356  16.968  20.341
   16.876  18.081  15.183  15.508  18.652  14.017  16.465  15.457  19.819  18.058
   17.095  17.658  16.069  17.178  16.048  11.597  13.469  15.633  16.442  18.216
   20.572  15.182  16.116  16.906  12.891   9.960  11.081  14.713  13.756  18.064
   11.914  11.531  11.078  11.352   9.026   8.959   5.697  11.588  11.466  14.977

    0.700  17.899
   24.179  24.994  23.433  22.127  20.259  20.101  18.505  16.866  19.182  21.874
   20.860  24.902  22.462  19.733  18.770  18.650  18.217  21.548  18.581  22.019
   25.193  24.683  23.330  20.157  21.490  19.060  18.584  14.299  19.251  18.446
   25.059  20.635  20.645  18.890  18.153  18.206  16.182  21.348  21.393  22.622
   20.933  22.742  18.213  17.839  15.440  17.150  19.232  21.110  18.873  17.662
   19.976  21.626  16.307  17.128  18.582  17.765  13.417  16.698  16.746  19.523
   15.584  17.509  15.385  15.353  18.701  14.675  15.556  15.852  19.632  17.970
   16.835  18.450  16.121  18.016  16.204  11.356  13.501  15.089  16.714  18.115
   21.105  15.135  14.992  16.682  12.423  10.209   9.788  14.823  13.368  18.780
   13.676  12.339  10.506  11.041   9.252   9.041   4.994  11.217  11.509  15.211

    0.750  17.352
   24.313  24.413  23.717  22.043  20.259  20.060  17.553  17.313  20.209  21.780
   20.308  24.343  23.116  20.559  18.494  19.797  18.519  21.926  18.667  21.676
   25.770  24.326  23.211  20.119  22.275  18.725  19.348  15.045  20.006  17.368
   25.718  20.068  20.693  17.991  18.870  18.385  16.487  21.148  21.708  21.966
   21.051  22.739  19.229  17.665  16.219  18.139  19.229  21.238  18.270  19.260
   20.064  21.310  15.664  16.824  17.479  17.692  13.582  17.873  16.889  19.865
   15.559  16.813  15.446  14.607  19.730  15.178  14.230  16.126  18.374  18.926
   16.603  18.279  16.510  18.600  15.562  12.395  13.970  15.380  16.688  18.220
   22.254  14.651  14.041  16.763  11.927  10.197  10.043  15.144  13.640  19.342
   13.735  12.368  11.366  11.396   9.146   9.695   5.711  10.325  13.577  14.746

    0.800  17.270
   24.169  23.268  23.708  23.396  20.648  20.422  16.882  17.096  21.563  23.107
   19.807  25.469  22.235  20.891  18.079  19.649  17.393  21.312  18.356  22.411
   26.314  24.341  22.095  20.013  22.057  18.655  19.455  15.645  19.328  18.429
   24.273  20.967  21.281  17.929  19.252  18.160  17.181  21.325  21.911  21.798
   20.992  23.118  19.042  17.441  16.194  18.973  19.005  20.862  19.085  19.556
   19.193  21.337  16.405  16.644  16.890  18.468  14.299  17.733  16.408  20.739
   14.339  16.737  14.717  14.925  19.375  14.942  14.388  17.502  17.867  18.858
   16.684  17.725  16.807  18.104  15.998  12.582  14.481  15.067  17.517  18.621
   22.077  14.680  13.766  16.822  12.869  10.284  10.038  15.232  14.940  20.059
   13.790  12.638  11.876  11.947   9.992   9.873   6.571   9.322  13.507  14.195

    0.850  16.153
   24.423  22.774  23.728  23.504  20.422  19.903  17.726  16.995  20.655  23.222
   20.655  25.864  22.265  20.554  18.114  19.137  17.192  21.176  18.504  22.181
   26.403  23.780  22.116  20.539  21.391  18.675  19.976  16.193  20.809  19.126
   23.576  20.994  21.083  17.154  18.828  17.469  17.663  21.214  21.543  22.868
   20.987  22.223  20.333  16.591  16.621  18.969  19.255  19.873  18.161  20.013
   18.953  21.401  16.249  15.894  15.986  19.111  14.324  17.583  16.432  20.798
   15.163  17.224  15.264  14.818  20.388  15.032  14.641  16.792  17.908  19.544
   16.106  16.331  15.181  18.057  16.211  12.909  14.824  14.131  18.262  18.391
   19.578  14.498  13.585  16.445  13.371   9.760  10.390  14.324  15.664  19.325
   13.471  13.359  12.553  11.922  10.480  11.790   5.561   8.800  13.933  14.478

    0.900  16.832
   23.857  22.349  23.303  22.597  20.578  18.897  18.411  17.407  20.491  22.808
   20.792  25.550  22.863  20.454  18.715  19.228  16.737  21.123  19.338  23.111
   26.786  24.182  22.384  22.683  20.963  18.270  19.491  17.350  21.201  18.919
   23.632  20.906  21.164  16.866  16.424  17.487  19.253  22.587  20.741  23.586
   21.681  21.800  20.344  16.594  17.060  18.545  18.814  20.245  18.612  20.146
   19.232  22.395  17.420  16.198  16.038  18.303  15.221  16.613  16.490  20.046
   15.497  17.135  14.166  14.016  20.692  16.022  14.556  16.589  18.055  18.788
   16.182  16.201  15.703  17.802  16.517  12.923  14.468  14.306  18.017  17.582
   18.868  14.198  15.152  17.166  13.109  10.099   9.225  14.034  16.547  18.487
   13.141  13.292  12.496  11.614  10.971  12.222   5.347   8.337  14.539  14.840

    0.950  17.383
   23.110  23.370  23.888  22.215  20.461  18.726  18.306  17.811  21.283  22.511
   19.822  24.233  23.526  20.497  17.593  18.313  17.035  20.904  19.417  23.114
   25.914  23.825  22.565  22.439  21.266  18.977  19.313  17.014  20.511  18.620
   23.693  19.927  20.699  18.297  17.066  17.714  19.561  22.084  20.347  23.924
   22.041  22.805  20.131  17.243  16.097  18.850  19.689  21.368  18.414  20.975
   19.431  21.884  16.963  16.874  16.803  17.148  15.708  16.653  17.186  19.270
   15.659  17.555  13.401  14.962  20.413  16.730  15.214  16.686  16.986  19.211
   16.000  16.367  16.470  17.806  17.003  11.576  14.248  13.393  17.702  17.716
   19.652  14.264  15.105  16.306  13.033  11.276  10.067  13.469  16.685  18.229
   12.750  13.673  12.099  11.933  10.611  12.022   4.683   7.752  14.549  15.469

    1.000  16.953
   22.689  24.024  24.794  22.375  19.755  19.815  17.934  18.599  21.375  21.682
   20.505  23.488  23.731  19.822  17.823  18.872  17.579  20.520  20.436  23.316
   25.407  23.006  23.322  22.400  20.690  19.601  19.445  16.536  20.386  18.998
   24.387  21.351  20.865  19.269  17.277  17.614  19.581  21.103  19.662  24.295
   22.128  21.993  18.935  16.680  15.498  19.139  20.669  21.757  19.006  20.402
   19.479  21.739  17.314  15.321  16.159  16.628  14.946  16.939  16.477  20.031
   15.461  18.023  13.054  15.506  20.134  15.499  15.139  17.158  16.797  18.914
   16.169  16.921  15.532  18.788  17.665  11.403  13.885  13.202  17.360  17.429
   20.097  14.782  14.436  16.464  12.580  12.065  11.098  13.231  16.087  18.998
   12.391  13.966  10.824  12.262  11.042  12.854   4.572   8.258  15.485  15.260

    1.050  17.723
   22.755  23.173  25.406  22.097  20.713  20.029  18.169  18.033  21.998  22.185
   19.953  22.598  23.297  19.867  17.920  18.630  16.913  20.618  19.404  21.985
   24.962  23.300  23.168  22.098  20.224  18.636  19.345  16.176  20.754  19.703
   24.710  21.702  20.472  19.363  17.386  16.060  20.018  21.120  18.598  23.932
   21.789  22.533  19.680  16.529  17.091  19.068  20.519  21.021  19.249  20.129
   19.643  21.636  17.268  14.750  17.230  17.054  15.444  17.567  16.185  20.819
   16.120  17.789  13.343  17.467  19.442  14.921  15.376  16.726  17.439  19.868
   16.443  17.126  13.885  18.493  17.824  11.001  13.610  13.362  18.154  18.470
   19.552  14.449  14.483  16.823  11.303  11.661  10.781  13.383  16.436  19.475
   12.818  13.119  10.930  12.418  10.392  12.845   5.253   7.910  15.763  15.269

    1.100  16.879
   22.550  23.312  25.806  22.393  20.346  19.973  18.813  17.391  21.856  21.644
   20.053  22.708  23.447  21.874  16.219  19.073  16.572  19.901  18.996  20.651
   25.197  23.085  23.710  22.857  19.214  18.107  19.031  15.839  21.521  19.511
   24.494  21.714  19.999  20.185  17.280  16.587  19.748  20.727  18.915  23.304
   22.429  22.607  19.662  15.899  17.604  18.450  20.029  20.384  18.323  20.627
   19.610  21.918  16.904  14.421  17.073  18.472  16.079  18.996  15.787  21.320
   16.348  18.189  15.808  17.869  18.838  15.011  15.859  16.848  17.410  20.499
   16.321  18.112  14.878  17.696  18.235  10.596  13.834  13.174  17.424  19.907
   18.509  14.799  13.859  16.568  12.344  12.108  11.422  14.101  17.825  19.447
   12.079  14.085  10.796  12.399  10.265  11.989   5.191   7.878  15.842  15.478

    1.150  17.059
   21.442  23.975  25.281  21.832  20.502  20.273  18.047  17.015  20.230  21.858
   19.031  22.703  23.320  21.884  16.993  18.968  15.360  18.889  18.158  21.121
   26.295  22.905  23.751  20.984  19.086  18.548  19.324  16.209  21.695  19.598
   24.144  21.132  19.835  19.867  17.547  16.832  19.747  20.253  19.322  23.819
   22.810  22.240  19.410  16.772  15.935  18.401  19.940  19.739  19.428  21.163
   19.839  21.740  16.671  14.804  16.784  18.356  15.839  18.281  15.925  21.427
   15.841  18.569  16.364  17.855  18.213  15.014  16.079  16.531  16.987  19.797
   16.964  18.403  15.148  17.973  16.204  10.492  14.511  12.969  18.172  19.721
   17.375  13.571  14.197  16.503  13.122  11.792  11.549  14.326  18.315  19.303
   11.437  13.563  10.129  12.940  10.439  11.211   5.671   8.114  16.269  16.290

    1.200  17.328
   22.193  24.763  23.720  19.964  20.341  20.095  16.522  16.776  20.014  22.279
   19.373  22.624  24.177  22.831  17.297  18.831  15.487  19.250  19.001  19.838
   26.458  23.576  23.719  20.271  19.730  18.853  20.333  16.459  21.951  19.171
   24.646  21.340  20.260  19.831  17.857  17.016  19.443  19.676  19.897  23.190
   23.532  22.584  19.520  16.670  15.665  18.756  19.269  19.776  18.935  22.319
   20.252  23.522  17.362  14.960  16.696  18.798  15.883  17.129  15.511  21.361
   15.569  18.019  16.627  17.679  16.760  16.145  16.140  16.400  17.276  18.863
   17.192  19.141  14.421  17.557  15.724  10.419  14.513  12.278  17.789  20.278
   17.063  13.577  14.230  16.288  12.985  11.687  10.735  14.313  17.620  19.787
   11.753  13.806  10.457  13.231   9.143  10.070   5.703   7.885  15.264  16.599

    1.250  17.236
   22.716  25.306  24.132  19.845  20.571  20.140  16.987  15.561  20.287  22.500
   20.214  22.150  24.344  23.101  17.736  18.959  15.299  19.329  19.127  20.040
   26.011  22.913  23.989  21.444  18.971  18.670  20.506  17.337  21.870  19.512
   25.511  21.887  19.985  19.703  19.053  16.962  19.344  19.191  20.704  22.387
   23.749  22.291  19.449  16.715  15.123  18.420  18.692  20.509  17.810  21.651
   18.674  23.130  17.780  15.627  16.420  18.813  17.228  17.352  16.060  20.800
   16.216  17.375  16.737  17.566  16.841  16.280  15.729  15.742  18.082  19.220
   16.315  18.167  14.546  17.605  15.782  10.894  13.575  12.833  17.936  20.153
   17.064  13.453  14.328  16.377  13.435  11.604  10.778  13.565  18.035  20.163
   11.854  12.841   9.684  12.512   8.975   9.603   4.772   6.971  14.567  16.590

    1.300  17.421
   22.251  25.826  23.998  19.597  21.401  20.011  17.707  15.477  19.820  21.638
   20.254  23.385  23.711  23.012  17.652  18.726  14.825  19.204  18.654  21.255
   25.253  23.240  24.448  20.625  19.729  19.279  20.703  17.144  21.319  19.483
   25.081  22.047  20.514  18.992  18.736  17.112  18.908  18.706  21.018  22.677
   23.354  22.420  19.977  16.996  15.295  17.897  18.826  21.228  17.291  21.305
   18.637  21.863  16.248  16.019  16.861  19.693  16.548  17.425  16.227  20.881
   16.564  17.905  17.022  17.574  17.799  16.196  15.058  16.450  18.419  18.487
   15.611  17.776  14.013  17.329  15.457  11.752  13.000  13.475  18.991  19.534
   16.951  13.475  13.866  15.941  12.702  11.265   9.802  13.846  18.911  19.917
   10.796  14.068   9.790  12.335   9.067  10.146   3.927   7.340  15.514  15.308

    1.350  17.299
   23.052  25.577  23.937  19.906  20.472  20.734  17.850  15.803  20.042  20.898
   19.475  24.509  22.998  23.185  18.658  19.784  15.670  18.737  18.698  21.754
   24.741  23.164  24.639  20.259  19.667  18.054  20.782  17.646  21.239  20.006
   24.922  20.158  20.678  18.725  18.736  17.733  19.268  18.690  20.803  21.136
   23.079  22.957  20.407  16.348  15.504  17.477  19.074  20.846  16.994  20.352
   18.932  21.687  16.169  15.843  17.187  20.201  16.874  17.635  16.551  21.203
   16.874  17.421  17.081  17.952  18.068  16.331  14.688  16.497  18.584  18.069
   15.840  18.269  13.989  17.301  15.067  11.284  13.266  13.705  18.914  19.613
   17.345  14.642  13.454  15.693  14.080  10.603   9.846  13.965  18.749  19.173
   10.856  13.686  10.676  11.637   8.809   9.986   3.253   9.199  15.845  15.099

    1.400  18.347
   22.987  24.622  24.453  19.756  21.944  20.773  16.855  16.284  19.711  20.446
   20.420  24.013  23.646  22.807  18.080  19.552  14.923  18.709  18.328  21.527
   24.153  22.579  25.297  20.191  19.773  18.749  21.237  18.196  21.146  20.272
   23.917  20.496  21.038  18.687  18.844  18.763  19.329  19.985  20.117  20.692
   23.027  22.614  19.936  16.189  16.301  18.323  19.026  20.365  16.806  19.381
   19.965  22.456  17.035  14.623  18.180  19.444  16.096  16.746  16.704  20.794
   17.520  17.994  17.234  18.675  18.338  16.312  15.464  16.214  17.905  17.529
   15.958  18.674  14.374  17.886  16.277  10.428  13.434  13.629  17.696  19.691
   17.228  15.648  11.707  15.418  14.059  11.085  10.451  14.736  18.623  19.331
   11.861  14.879  11.929  11.752   9.099   9.662   4.132   8.960  16.315  15.182

    1.450  17.595
   22.973  25.259  25.466  20.868  22.064  19.783  16.656  15.285  20.206  20.503
   20.464  24.874  23.557  21.878  18.314  20.037  15.892  19.444  17.096  21.768
   23.681  23.004  24.891  21.122  20.316  19.154  19.730  18.851  20.484  21.223
   25.224  19.689  21.116  18.011  18.108  19.580  20.269  19.637  19.938  21.741
   22.478  22.690  19.494  17.515  15.676  18.333  19.587  20.517  16.719  18.394
   19.267  23.964  16.046  14.793  18.328  19.306  15.420  16.983  16.905  20.645
   16.817  18.805  16.817  18.956  17.817  15.865  15.886  15.985  17.817  17.195
   15.396  19.159  14.886  17.341  15.930  11.015  13.550  14.380  17.675  19.815
   17.509  15.191  11.954  14.809  13.435  11.594  10.628  14.224  18.217  19.572
   11.619  15.453  11.394  10.763   8.725   7.614   4.603   8.317  15.960  15.004

    1.500  17.559
   23.302  24.812  26.195  20.285  21.208  18.908  17.408  14.647  20.315  20.619
   19.481  24.563  23.689  21.840  18.592  20.001  14.831  19.014  18.532  23.658
   24.572  23.017  24.584  20.691  21.720  18.922  20.188  19.113  21.046  21.482
   24.045  20.662  20.500  18.767  19.158  20.120  20.030  19.261  19.776  22.611
   22.775  22.797  19.334  17.996  15.231  17.232  21.156  20.958  16.504  18.735
   19.805  23.430  15.553  15.153  18.490  18.570  15.338  17.236  17.364  20.024
   16.601  17.848  17.764  19.184  17.991  16.971  16.212  14.285  17.564  17.419
   14.722  19.568  15.009  17.358  15.660  10.278  12.947  14.509  16.533  19.415
   17.701  15.635  12.618  15.437  13.430  10.379  10.574  15.786  18.463  19.935
   11.517  15.675  11.326  10.872   8.303   9.112   5.742   8.454  15.907  14.936

    1.550  18.122
   23.489  24.785  26.997  21.015  21.083  18.470  16.913  14.593  20.215  21.186
   18.443  25.074  23.147  23.433  18.791  18.651  14.936  19.381  18.209  24.293
   25.108  22.892  23.475  20.922  20.744  18.511  20.318  19.126  21.173  20.817
   24.484  19.951  19.975  19.017  19.876  19.688  19.909  19.794  18.698  21.614
   22.458  22.980  18.972  18.721  15.818  16.947  20.728  20.783  16.672  17.791
   20.855  23.069  16.147  15.242  18.622  18.324  15.777  16.272  17.208  20.006
   16.058  19.361  17.245  18.158  16.976  17.033  16.572  13.479  16.704  17.660
   15.160  19.444  16.186  17.053  15.185  10.015  13.177  13.674  16.249  18.882
   17.620  15.224  13.106  15.872  14.540  10.913  10.700  15.667  19.212  20.241
   12.068  15.752  10.173  11.233   8.245   9.147   5.673   9.120  15.493  14.878

    1.600  17.892
   22.804  24.511  27.158  20.473  21.571  19.126  16.997  15.136  19.021  22.173
   18.383  24.307  22.855  24.372  18.539  18.594  15.500  17.671  17.708  24.059
   26.088  23.050  22.671  21.027  20.966  19.424  20.151  17.922  20.580  20.235
   24.965  20.287  20.525  18.993  18.899  18.654  21.686  20.131  18.844  22.779
   22.153  23.415  19.491  18.573  14.713  16.666  19.625  19.787  16.926  19.309
   21.566  22.645  16.245  15.221  18.442  17.917  15.635  16.861  18.597  20.305
   16.177  19.567  17.328  17.813  16.625  17.722  16.006  14.476  16.251  17.970
   15.608  18.663  15.887  16.397  15.599  10.754  13.566  12.864  14.460  18.861
   17.038  15.610  14.120  15.353  14.676  12.189  10.713  16.437  19.662  20.206
   12.828  15.117   8.990  11.625   8.619   9.081   5.477   8.581  15.986  15.968

    1.650  18.083
   22.694  23.903  27.247  21.497  21.417  19.628  17.381  15.737  19.448  22.684
   18.195  24.491  23.111  23.657  20.428  18.029  15.215  17.204  17.737  23.235
   26.876  22.776  23.540  21.919  20.816  18.729  20.661  17.560  19.594  20.669
   23.649  20.816  21.169  18.729  18.999  19.303  20.940  20.326  19.658  22.761
   21.216  23.677  20.061  17.912  14.842  17.336  19.745  18.723  17.659  19.024
   21.210  23.448  16.268  16.425  19.194  18.115  16.061  17.478  18.238  19.870
   15.938  19.460  16.968  17.161  16.538  15.482  16.454  14.798  15.904  18.538
   16.302  17.857  14.848  16.447  15.644  10.389  11.789  12.361  14.864  20.202
   17.288  16.187  13.950  14.180  14.150  12.434  10.625  15.696  18.832  20.074
   12.337  15.289  10.179  12.652   8.536   9.665   5.875   9.414  15.954  15.687

    1.700  18.492
   23.050  23.303  27.310  20.808  22.071  19.221  17.331  15.088  19.665  22.339
   19.530  24.695  23.398  23.115  20.768  18.542  15.276  16.098  17.941  22.382
   26.096  23.194  23.570  22.207  20.462  17.799  19.923  16.766  18.599  20.901
   22.301  20.103  21.965  19.006  19.728  18.836  20.990  21.065  20.386  22.419
   21.350  23.425  19.775  16.568  14.212  17.590  18.886  20.156  17.442  19.318
   20.853  22.104  17.838  16.910  19.963  18.285  16.074  18.072  18.261  20.652
   15.912  19.102  17.122  17.568  16.651  15.088  17.143  14.955  15.562  19.355
   17.073  18.226  14.755  16.636  15.459  11.170  11.742  11.689  15.017  20.857
   16.584  16.800  13.916  14.263  14.628  11.935  11.046  15.441  18.130  21.033
   12.518  15.156  11.137  11.204   9.024   9.348   5.980   8.776  16.457  16.132

    1.750  18.999
   23.312  23.840  26.966  20.498  21.982  20.063  16.777  16.022  18.662  22.288