
This full-field turbulence file was generated by TurbSim (v1.40, 12-Sep-2008) on 27-May-2021 at 14:31:13.

 | u-comp |  Y  x  Z  | Grid Resolution (Y x Z) | Time-step | Hub Elev | Mean U |
            10    10     15.556     15.556          0.050      89.60      5.00

 Z Coordinates (m):
  -70.000 -54.444 -38.889 -23.333  -7.778   7.778  23.333  38.889  54.444  70.000

 Y Coordinates (m):
  -70.000 -54.444 -38.889 -23.333  -7.778   7.778  23.333  38.889  54.444  70.000

    0.000   3.109
    5.524   6.329   6.783   6.397   7.206   6.807   5.388   4.507   5.079   4.417
    3.852   4.394   6.872   5.876   6.740   5.202   4.453   3.991   4.928   6.448
    3.763   4.272   2.624   3.151   6.482   3.530   5.543   4.626   5.217   4.045
    6.726   3.722   3.461   6.727   3.743   4.561   5.969   5.818   3.684   2.179
    8.438   7.097   6.531   2.064   4.237   3.581   2.056   3.837   2.121   4.380
    5.440   6.118   3.519   4.001   2.684   3.751   5.211   3.097   3.898   5.147
    4.095   6.026   6.814   2.419   5.003   3.939   7.207   3.462   6.738   6.189
    5.422   3.051   2.111   2.093   5.458   2.459   4.084   5.172   4.548   2.874
    4.251   0.805  -1.338   2.214   3.112   1.558   4.161   3.202   2.887   3.430
    0.849   1.003   2.012   1.350   1.371   2.589   2.269   2.018   1.381   0.306

    0.050   3.169
    5.261   6.276   7.046   6.417   7.509   6.815   5.386   4.768   4.828   3.959
    4.040   4.519   6.357   5.743   6.333   5.517   5.059   3.665   5.168   6.473
    3.844   4.561   2.682   2.948   5.964   3.422   5.572   4.909   5.271   4.437
    7.041   4.035   3.337   6.363   3.408   4.382   6.212   5.581   3.434   2.207
    8.593   7.100   6.587   2.007   3.930   3.348   1.890   3.972   2.721   4.334
    5.532   6.012   4.353   4.371   2.725   4.077   5.418   3.345   3.970   5.440
    3.573   5.881   7.101   2.881   4.781   4.185   7.413   3.622   6.889   6.070
    5.063   3.122   2.320   2.253   5.620   2.409   3.977   5.350   4.428   2.822
    4.085   0.416  -1.253   1.930   3.187   1.614   4.156   3.337   2.456   3.762
    1.087   1.183   1.800   1.244   1.237   2.687   2.092   2.069   1.602   0.638

    0.100   3.079
    5.592   5.942   6.826   6.481   7.058   6.547   5.076   4.646   5.154   3.830
    4.254   4.748   6.547   5.836   6.140   5.548   5.324   3.863   5.427   6.644
    3.952   3.966   2.908   3.211   6.020   3.875   5.879   4.868   5.056   4.923
    7.128   3.915   3.556   6.403   3.346   4.834   6.674   5.791   3.556   2.359
    8.598   7.251   6.555   2.235   3.635   2.967   1.750   4.331   2.692   4.051
    5.475   5.833   3.993   4.660   2.452   4.729   5.207   3.660   4.191   5.245
    4.339   5.601   7.098   2.850   5.054   4.648   7.238   3.627   6.988   5.932
    4.795   2.812   2.583   2.179   5.457   2.106   3.821   5.490   4.312   2.465
    4.265   0.739  -1.101   1.934   3.455   1.254   3.943   3.582   2.357   4.337
    0.861   1.119   1.925   1.537   1.712   2.671   2.118   2.086   1.529   0.578

    0.150   3.491
    5.291   6.551   7.114   6.773   7.772   6.420   5.025   4.805   5.203   3.499
    4.181   4.888   6.437   5.826   6.187   5.573   5.350   4.319   5.303   6.564
    4.421   4.046   3.180   3.312   5.946   4.281   6.181   4.374   5.448   5.215
    6.697   3.729   3.961   6.363   3.313   4.939   6.760   5.297   3.248   2.597
    8.625   7.629   6.503   2.518   3.474   3.193   2.163   3.877   3.026   4.251
    5.318   5.910   3.694   4.539   2.094   4.737   4.955   3.700   3.656   5.897
    4.262   5.778   6.435   2.264   5.199   4.579   7.509   3.665   6.604   6.261
    4.518   2.737   2.110   2.542   5.426   2.351   3.997   5.576   4.473   2.835
    3.499   0.608  -1.090   1.957   2.928   1.514   4.116   3.689   2.347   3.688
    1.096   1.329   1.510   1.162   1.686   2.175   1.718   1.625   1.295   1.190

    0.200   3.273
    5.175   6.403   7.270   6.779   7.526   7.259   4.783   4.780   5.040   3.160
    3.887   4.671   6.062   5.934   6.085   5.775   5.593   4.083   4.816   6.613
    4.583   3.744   3.060   3.489   6.023   4.895   5.989   4.888   5.174   5.197
    6.550   3.708   4.240   6.644   3.527   4.600   6.625   5.218   3.016   3.129
    8.385   7.264   6.810   2.357   3.630   2.835   2.402   3.998   2.676   4.025
    5.702   6.422   3.628   4.728   2.280   4.636   5.308   3.956   3.625   5.645
    4.059   5.804   6.457   1.975   4.729   4.277   7.228   3.712   5.904   6.418
    4.509   2.617   1.797   2.528   5.492   2.133   4.321   5.439   4.341   2.875
    3.473   0.327  -1.542   2.509   3.192   1.762   3.751   3.608   2.370   4.125
    0.744   1.420   1.492   1.134   1.605   1.849   1.376   1.745   1.510   0.842

    0.250   3.570
    5.012   5.568   7.042   6.799   7.636   7.148   4.746   4.683   5.326   3.034
    3.638   4.869   5.921   5.929   6.493   5.577   5.556   4.127   4.481   6.209
    4.553   3.577   3.871   3.733   5.720   5.298   5.832   4.800   5.110   4.652
    6.778   3.695   4.939   6.743   4.041   4.889   6.080   5.187   3.339   2.733
    7.789   7.414   6.241   3.060   3.613   3.451   2.403   4.047   2.385   3.754
    5.771   6.154   3.670   4.732   2.148   4.749   4.595   3.860   3.523   5.760
    4.154   5.609   7.097   2.310   4.742   4.022   6.828   4.093   5.514   6.475
    4.316   2.276   2.523   2.684   6.094   2.128   4.146   5.698   4.776   2.491
    3.237   0.199  -1.725   2.537   3.414   1.554   3.752   3.389   2.269   4.077
    0.573   1.327   1.301   1.454   1.595   1.852   1.331   1.670   1.083   0.650

    0.300   3.674
    4.920   5.694   7.201   6.408   7.114   7.054   4.488   4.839   5.461   3.438
    3.388   4.682   5.530   5.797   6.285   6.076   4.652   3.916   4.777   6.220
    4.653   3.420   3.904   3.607   5.923   4.724   6.234   4.450   5.486   4.735
    6.572   4.045   4.992   6.797   3.637   5.060   5.947   5.342   3.356   2.770
    7.963   7.216   5.837   3.238   3.666   3.321   2.193   4.140   2.604   3.909
    5.742   6.386   3.855   4.581   2.008   4.607   4.723   3.517   2.948   5.751
    4.027   5.972   7.171   2.599   4.320   3.909   7.024   3.900   5.578   6.208
    4.447   2.998   2.472   2.636   5.891   2.341   4.365   6.085   4.585   2.137
    2.638   0.482  -1.744   2.288   3.113   1.576   3.886   3.218   2.175   3.690
    0.594   1.500   1.069   1.076   1.604   2.202   1.375   1.583   0.731   0.737

    0.350   3.504
    4.708   6.178   7.333   6.417   6.811   7.248   4.970   4.077   5.735   3.321
    3.717   4.445   5.308   6.120   6.131   6.271   5.069   4.065   5.172   5.972
    4.366   3.672   3.480   3.727   5.728   5.270   6.246   4.215   5.714   4.907
    6.352   4.535   4.948   6.643   3.446   4.695   6.035   4.770   3.385   2.896
    8.550   7.228   5.999   3.319   3.411   3.553   2.469   4.302   2.491   3.960
    5.464   5.789   3.773   4.483   1.941   4.399   4.568   3.096   2.554   5.607
    4.182   5.966   6.585   2.646   4.165   4.058   7.323   3.765   5.891   5.949
    4.301   2.861   2.624   3.539   5.767   2.465   4.390   5.931   4.646   2.162
    2.788   0.584  -2.231   2.622   2.638   1.318   3.249   3.410   2.484   3.864
    0.584   1.612   1.167   1.120   1.797   1.915   1.709   1.618   0.734   0.644

    0.400   3.514
    4.851   6.320   7.506   6.006   7.072   6.833   5.657   3.840   5.629   2.898
    3.980   4.648   5.640   6.096   6.002   6.731   4.766   3.989   5.154   5.657
    4.299   3.832   3.447   3.616   5.359   4.624   5.620   4.154   5.472   4.882
    6.760   4.247   4.798   6.920   3.140   4.555   5.920   4.915   3.272   2.846
    8.379   7.723   5.952   3.107   3.255   3.443   2.448   4.869   2.877   3.831
    4.977   5.611   3.512   4.955   2.056   4.771   4.513   3.145   2.739   5.259
    4.324   5.733   6.786   2.586   3.981   4.244   7.675   4.208   6.558   5.867
    3.897   2.863   2.318   3.651   6.103   2.488   4.485   6.080   4.497   2.126
    2.753   0.667  -2.147   2.786   2.697   1.268   3.665   3.921   2.018   4.270
    0.324   1.841   0.963   1.106   1.459   1.750   2.260   1.861   0.706   1.049

    0.450   3.337
    4.591   6.092   7.643   5.830   7.671   6.775   5.639   3.942   5.151   3.247
    4.102   4.837   5.862   6.024   5.912   6.709   4.959   4.161   5.168   5.657
    4.383   3.481   3.258   2.908   5.137   4.646   5.382   3.816   5.021   4.686
    6.022   4.423   5.108   6.545   3.105   4.596   5.782   4.856   3.076   2.708
    8.114   7.625   6.315   3.305   2.710   3.363   2.334   4.566   3.099   3.890
    4.792   4.925   3.272   5.336   1.899   4.874   4.603   3.429   2.730   4.824
    4.133   5.461   6.441   2.585   3.668   4.311   7.529   3.976   6.403   5.484
    4.301   2.418   2.010   3.317   5.772   2.716   4.759   5.492   4.818   2.641
    2.781   0.690  -2.026   2.405   3.082   1.485   3.947   4.049   2.176   4.408
    0.686   2.332   0.978   1.284   1.802   1.153   2.221   2.212   0.764   0.947

    0.500   3.402
    4.807   5.596   7.774   5.554   7.819   6.789   5.500   3.969   4.870   3.248
    3.952   4.664   5.782   6.052   5.989   6.891   5.262   3.670   5.188   5.768
    4.413   3.396   3.360   3.552   5.305   4.306   5.501   3.851   5.175   4.657
    5.601   4.918   5.078   6.706   3.286   4.707   6.056   5.162   3.063   3.161
    8.454   7.878   6.757   3.204   2.718   3.610   2.699   4.525   3.377   3.785
    4.909   5.236   2.885   5.440   1.923   5.085   4.720   3.382   2.692   4.543
    4.132   5.164   6.120   2.226   3.169   3.985   6.801   3.775   6.197   5.884
    4.521   1.947   2.317   3.253   5.620   2.556   4.269   4.921   4.761   2.485
    2.713   0.278  -1.763   2.833   3.543   1.331   3.703   3.786   2.541   4.559
    0.518   1.922   1.103   1.439   1.947   1.298   2.362   2.494   0.830   0.527

    0.550   3.093
    5.082   5.456   7.660   5.613   8.190   6.695   5.758   4.382   4.952   3.260
    4.045   4.266   5.775   5.983   5.803   7.066   5.098   3.578   4.744   5.364
    4.359   2.818   3.282   4.215   5.410   3.946   5.655   4.006   4.934   4.720
    5.934   4.907   4.634   6.314   3.298   4.454   5.991   5.305   2.924   2.919
    8.371   8.162   6.629   3.299   2.562   3.423   2.756   4.010   3.312   3.642
    4.521   5.324   3.075   5.650   2.100   5.000   4.841   3.123   2.720   4.856
    4.242   4.849   6.097   2.202   3.238   4.053   6.746   3.790   6.117   6.370
    4.468   2.175   1.746   3.668   5.434   2.221   4.275   5.083   4.685   2.731
    3.074  -0.018  -1.512   3.039   3.596   0.980   4.016   3.875   2.529   4.324
    0.283   1.865   1.558   1.514   1.828   1.644   2.565   2.176   0.643  -0.029

    0.600   3.168
    5.071   5.109   7.812   5.246   7.872   5.911   5.676   3.880   5.327   2.977
    3.978   3.939   5.913   6.382   6.130   7.510   5.177   3.951   4.656   5.844
    4.093   2.875   3.339   4.218   5.335   4.211   5.499   4.181   4.790   4.619
    5.739   4.822   4.639   6.140   3.422   4.749   6.364   5.080   3.332   2.790
    8.630   7.701   5.760   3.014   2.978   3.279   2.400   3.624   3.173   3.755
    4.700   5.570   3.096   5.682   2.166   4.828   5.166   3.584   2.121   4.687
    4.049   4.902   6.434   2.370   3.884   4.437   6.677   3.241   5.902   5.817
    4.609   1.680   1.562   3.690   5.265   2.133   3.728   5.328   4.754   3.163
    2.981   0.230  -1.738   2.924   3.257   0.840   3.751   3.474   2.567   4.358
    0.651   1.831   2.027   1.384   2.037   1.745   2.371   2.044   0.680   0.064

    0.650   3.028
    5.248   5.066   7.878   5.264   7.091   5.682   5.608   3.676   4.586   2.742
    4.230   4.228   5.862   6.256   6.033   6.913   4.450   3.874   5.024   5.660
    4.513   2.873   3.193   4.051   5.725   4.089   5.575   4.238   5.260   4.739
    5.930   4.572   4.922   6.371   3.321   5.087   6.437   5.125   3.214   2.990
    8.614   7.676   5.331   3.235   3.514   3.032   2.525   4.022   3.116   3.779
    4.406   5.915   3.078   5.319   2.482   4.798   5.318   3.714   2.229   4.679
    4.409   5.336   6.500   2.222   3.452   4.610   6.506   3.322   5.707   5.645
    4.916   1.312   1.709   3.429   4.956   2.929   3.421   5.220   4.632   3.072
    3.368  -0.131  -1.927   2.865   3.026   0.269   4.312   3.480   2.120   3.978
    0.420   1.983   1.843   1.197   1.727   1.992   1.707   2.070   1.107  -0.429

    0.700   3.355
    4.981   5.066   8.057   5.650   7.387   5.944   5.306   3.464   4.769   2.493
    4.302   4.457   5.858   6.720   5.866   6.323   4.342   3.721   5.419   5.694
    4.452   2.816   3.511   4.302   5.669   3.946   5.715   3.983   5.075   4.491
    5.898   4.891   4.619   6.283   3.100   5.395   6.306   5.127   3.128   2.864
    8.504   7.887   5.269   2.648   3.564   3.108   2.646   3.639   3.052   4.017
    4.972   5.654   2.832   5.650   2.508   4.508   4.859   3.864   2.229   4.999
    4.456   5.458   6.661   2.390   3.414   4.439   6.921   3.414   5.390   5.522
    4.670   1.424   1.667   3.706   5.407   3.342   3.091   5.301   4.789   3.299
    3.698  -0.589  -1.656   2.895   3.252   0.754   4.447   3.907   1.909   3.660
    0.410   2.444   1.954   1.517   1.655   1.678   1.882   1.908   1.144  -0.493

    0.750   3.366
    4.893   5.000   8.394   5.577   7.293   5.894   5.662   3.500   5.032   2.821
    4.304   4.625   5.943   6.914   5.674   6.730   4.544   3.557   5.615   5.537
    4.550   3.109   3.581   4.275   5.308   3.537   5.710   4.068   5.399   4.889
    6.519   4.874   4.281   6.032   2.863   5.636   6.396   5.356   3.052   2.783
    8.456   7.790   5.038   2.902   3.120   2.787   2.074   3.906   2.810   3.620
    5.316   5.783   3.078   5.629   2.557   4.332   5.194   3.954   1.976   5.235
    4.420   5.066   6.478   2.906   3.812   4.357   7.006   3.414   5.738   5.676
    4.662   2.046   1.514   3.512   5.295   3.529   3.190   5.721   4.716   3.650
    3.864  -0.626  -1.399   2.859   3.350   1.197   4.441   3.345   1.755   3.355
    1.104   2.214   2.182   1.372   1.666   1.884   2.290   1.673   1.198  -0.475

    0.800   3.709
    4.603   5.160   8.427   5.929   7.493   5.962   5.721   3.706   4.833   3.264
    4.333   4.872   6.060   7.123   6.349   6.500   4.778   3.273   5.817   4.780
    4.921   2.985   3.192   4.150   5.352   3.100   5.869   4.235   5.408   5.713
    6.771   5.457   3.974   5.925   2.661   5.825   6.528   4.999   3.153   3.311
    8.208   7.674   4.921   3.279   3.129   2.365   2.279   4.349   3.328   3.740
    5.736   5.587   3.406   5.404   2.127   4.238   5.081   3.856   2.172   5.605
    4.620   5.509   6.424   3.116   3.584   4.432   6.775   3.541   5.150   5.614
    4.580   2.352   1.359   3.302   4.926   3.942   3.147   5.579   4.608   3.589
    3.857  -0.723  -1.504   2.868   3.320   1.215   4.192   3.629   1.584   3.252
    1.488   2.131   1.930   1.013   1.832   1.826   2.469   2.480   1.136  -0.776

    0.850   3.569
    4.944   5.237   8.796   5.758   7.266   6.379   5.600   3.841   5.128   3.680
    4.350   5.197   5.904   7.022   5.975   6.496   4.744   3.560   5.573   4.688
    4.918   3.085   2.801   3.743   5.447   3.258   5.724   3.686   5.768   5.921
    7.079   5.369   4.078   5.487   2.879   5.385   6.701   5.111   3.061   3.380
    7.915   7.576   5.558   3.423   2.922   2.937   2.367   4.372   3.695   3.587
    6.129   5.716   3.553   5.176   2.349   4.276   5.063   3.849   2.033   5.632
    4.347   5.491   6.180   3.524   2.983   4.258   6.910   3.449   5.524   5.692
    4.743   2.271   1.664   3.214   4.886   3.838   3.142   5.397   4.994   3.849
    3.705  -0.523  -1.549   2.691   3.372   1.298   3.938   3.664   1.640   3.511
    1.359   2.136   1.821   1.144   1.457   1.387   1.770   2.475   1.572  -0.273

    0.900   3.829
    5.338   4.911   8.344   5.933   7.020   5.810   5.891   3.259   5.352   3.898
    4.231   4.905   6.322   6.711   6.148   6.778   4.511   3.863   5.901   5.361
    4.956   3.786   2.345   3.533   5.581   3.086   6.127   3.914   5.853   5.834
    6.873   5.566   3.950   5.709   2.609   5.286   6.914   5.658   2.993   3.517
    7.526   7.564   5.664   3.787   2.684   3.202   2.625   4.297   4.185   3.396
    6.241   5.443   3.870   5.182   2.195   4.448   5.403   4.142   1.967   5.694
    4.205   5.215   5.799   3.433   2.916   4.242   6.611   3.435   5.439   5.689
    5.307   2.135   1.507   3.120   5.176   3.944   3.384   5.504   5.470   4.116
    3.788  -0.486  -1.571   2.453   3.557   1.415   4.311   3.295   1.557   4.017
    1.446   2.228   1.773   0.970   1.410   1.309   1.187   2.287   1.795   0.776

    0.950   3.541
    5.437   4.696   7.908   5.825   6.872   5.525   5.643   3.152   5.220   4.115
    4.433   5.216   5.924   6.621   5.898   6.898   4.181   3.469   5.549   5.300
    5.002   3.469   2.087   3.439   5.801   3.279   6.012   3.857   5.693   5.917
    7.337   5.887   4.269   5.556   2.483   5.349   6.337   6.075   2.989   3.704
    7.586   7.509   5.444   3.454   3.038   3.338   3.054   3.908   3.768   3.254
    6.668   6.069   3.638   5.332   2.234   4.383   5.269   4.654   1.813   5.834
    4.493   5.320   5.848   3.317   2.863   4.427   6.300   3.638   5.747   6.013
    4.877   2.111   1.431   3.424   5.141   4.406   3.325   6.108   5.628   3.997
    3.681  -0.297  -1.491   2.068   3.649   1.206   4.262   3.044   1.853   4.244
    1.212   2.298   1.628   1.188   1.969   1.040   1.119   1.958   1.725   0.891

    1.000   3.546
    5.232   5.021   7.915   5.782   6.956   5.308   5.763   3.332   4.395   4.223
    4.844   5.489   5.801   6.970   5.873   6.809   4.498   3.235   5.587   4.964
    5.213   3.038   2.150   2.871   5.714   3.467   6.220   4.100   5.581   5.984
    7.062   5.274   4.136   5.593   2.360   5.075   6.431   6.119   2.752   3.383
    7.687   7.785   5.341   3.079   2.848   3.419   3.277   3.567   3.099   3.461
    6.513   6.443   3.494   5.156   2.126   4.500   5.081   4.927   2.412   5.452
    4.256   5.544   5.731   3.266   2.946   4.378   6.527   3.600   5.386   6.035
    4.554   2.018   1.433   3.381   4.796   4.119   3.545   6.071   5.890   4.670
    3.615   0.541  -1.228   2.346   3.930   1.549   3.823   3.500   1.766   3.960
    1.132   1.965   1.518   1.264   1.523   1.756   1.348   1.783   1.592   0.239

    1.050   3.561
    5.464   5.359   7.728   5.742   7.150   4.939   6.105   3.560   4.515   3.675
    4.549   5.472   5.920   7.162   6.279   6.732   3.964   3.400   5.284   4.961
    4.542   2.869   2.084   3.695   5.430   3.686   6.269   3.954   5.316   6.084
    6.720   5.106   4.194   5.986   2.656   5.086   6.987   6.430   3.008   3.458
    7.747   7.728   5.030   3.475   2.538   3.137   3.116   4.229   3.650   3.449
    6.169   6.885   3.616   5.028   1.937   4.531   5.098   4.660   2.389   5.451
    3.852   5.683   6.137   3.246   2.765   4.338   6.722   3.373   5.331   5.514
    4.907   1.797   0.980   2.774   5.074   3.921   3.772   6.272   5.861   4.776
    3.404   0.591  -1.666   2.350   4.079   2.176   3.758   3.329   1.891   3.722
    0.953   2.240   1.361   1.452   1.454   2.108   1.204   1.839   1.712   0.383

    1.100   3.901
    5.137   5.283   7.864   6.289   7.786   4.699   6.186   3.099   4.937   3.905
    5.370   5.723   5.776   7.061   6.324   6.624   3.530   3.396   5.622   5.076
    4.464   2.807   2.105   3.846   5.896   3.330   6.064   4.033   5.698   6.005
    6.667   4.936   4.170   5.849   2.610   5.275   6.719   6.284   3.270   3.403
    7.595   7.344   4.667   3.619   2.642   3.612   2.904   4.259   3.679   3.228
    6.638   7.267   4.246   4.962   2.451   4.286   4.901   5.128   2.609   6.008
    3.477   5.664   6.643   3.438   3.007   4.285   7.004   3.702   5.228   6.094
    5.446   1.650   1.379   2.779   5.403   3.752   3.453   6.240   5.837   4.835
    3.755   0.461  -1.881   2.407   4.098   2.355   3.913   3.147   1.667   3.557
    0.774   2.263   1.054   1.586   2.105   2.049   1.013   2.263   1.724   0.662

    1.150   3.878
    4.885   4.969   7.944   6.075   7.639   5.000   5.992   2.670   4.598   3.858
    5.288   6.057   5.712   7.661   6.266   6.749   3.539   3.313   5.920   5.052
    4.132   2.737   2.298   3.812   5.889   3.273   6.011   4.243   5.540   6.111
    6.597   5.422   3.618   5.909   2.757   5.447   6.657   6.074   2.826   3.493
    7.388   7.008   4.502   3.373   2.543   3.314   2.588   4.127   3.788   2.851
    6.265   7.449   4.116   5.367   2.256   4.305   4.969   5.299   2.840   6.227
    2.912   5.850   6.800   3.617   2.879   3.932   7.142   3.701   5.135   6.357
    5.365   2.270   0.975   2.708   5.301   3.773   2.681   6.119   5.990   4.272
    3.594   0.510  -1.671   2.588   4.404   2.320   3.700   3.322   1.831   3.459
    1.027   1.648   1.074   1.472   2.156   2.200   0.953   2.755   1.518   0.834

    1.200   4.187
    5.034   5.368   8.347   5.845   7.020   5.313   5.862   2.926   4.192   3.646
    5.385   6.011   5.896   7.274   6.109   7.255   3.460   3.622   6.038   5.537
    3.809   2.941   2.546   3.858   5.919   3.568   5.499   4.573   5.427   6.284
    6.434   5.320   3.834   5.738   2.603   5.506   6.081   5.797   2.669   3.265
    7.310   6.904   4.579   2.648   3.013   3.221   2.736   3.798   3.823   3.483
    6.152   7.471   4.428   5.460   2.383   4.187   4.884   5.289   3.381   5.430
    2.575   5.937   6.759   3.566   3.159   4.238   7.234   3.906   5.305   6.658
    4.601   2.262   0.702   2.819   5.287   3.998   2.864   6.251   5.840   3.289
    3.848   0.511  -1.480   1.880   4.112   2.547   4.202   3.465   1.738   3.423
    0.720   2.068   1.410   1.611   1.563   2.512   1.085   2.780   1.483   0.405

    1.250   3.723
    4.886   5.651   7.966   5.726   6.535   4.954   5.879   2.922   4.558   3.597
    5.237   5.349   6.138   7.108   5.952   7.311   3.393   3.814   5.792   6.071
    3.721   3.012   2.200   3.976   5.594   3.081   5.945   4.844   4.940   5.943
    6.219   5.457   3.992   5.454   2.393   5.741   5.990   6.156   2.906   3.370
    7.406   6.820   4.291   2.671   3.023   3.232   2.761   3.503   3.974   3.564
    6.177   7.046   4.005   5.522   2.480   4.337   5.111   5.438   3.437   5.373
    2.991   5.879   6.770   3.402   3.083   4.066   7.203   3.761   5.307   6.455
    4.758   2.338   0.954   2.603   5.553   4.120   2.976   6.239   5.977   3.317
    3.799   0.309  -1.788   1.475   3.826   2.209   3.795   3.378   1.939   3.712
    0.463   1.901   1.584   1.586   1.739   2.565   1.390   2.482   1.558  -0.068

    1.300   3.679
    4.629   5.377   8.520   6.112   6.419   5.446   5.913   2.781   4.713   3.546
    4.881   5.523   6.652   7.126   6.333   7.346   3.283   3.187   5.841   5.898
    3.474   3.098   2.350   4.250   5.575   2.960   5.728   5.034   4.696   5.633
    6.225   5.505   3.814   5.455   2.269   6.073   6.436   5.943   2.930   3.697
    7.615   6.854   4.213   2.698   2.961   3.165   2.655   3.641   3.992   3.694
    6.377   7.131   3.750   5.405   2.387   4.508   5.055   5.412   3.410   5.834
    2.710   5.971   7.249   3.693   3.206   3.794   7.306   3.996   5.086   6.445
    4.984   2.111   1.317   2.763   5.894   4.189   2.983   5.969   6.080   3.424
    3.380   0.237  -1.401   1.450   4.050   2.023   3.626   3.561   2.090   3.928
    0.371   2.024   1.216   1.097   1.267   2.716   1.604   2.006   1.353  -0.516

    1.350   3.773
    4.326   5.421   8.708   6.188   6.098   5.190   6.551   3.305   4.632   3.365
    4.586   5.990   6.870   6.918   5.604   6.746   3.192   3.462   5.541   5.610
    3.439   3.078   2.554   4.791   5.969   3.104   5.410   5.314   4.840   5.733
    5.897   5.503   3.995   5.256   2.312   6.326   5.913   5.797   2.762   3.994
    7.436   6.501   4.217   2.826   2.540   3.540   2.569   3.691   3.793   3.776
    6.361   7.221   3.770   4.809   2.676   4.112   5.171   5.388   3.603   5.989
    3.195   6.547   7.115   3.592   3.007   3.964   7.009   4.346   5.293   6.086
    4.859   2.440   1.636   2.475   5.642   4.177   2.963   6.283   5.645   3.452
    3.252   0.308  -1.683   1.575   4.034   1.768   3.773   3.387   1.782   4.331
    0.668   1.936   1.666   1.368   1.438   2.325   1.778   2.212   0.934  -0.423

    1.400   3.687
    4.051   5.387   8.643   6.107   6.085   5.062   6.830   2.978   5.026   3.168
    4.852   5.974   6.373   7.024   5.030   6.458   3.333   3.877   5.033   5.800
    3.511   3.207   2.233   4.886   5.751   3.407   5.135   5.472   4.529   5.799
    5.946   5.610   3.861   6.155   2.206   6.429   6.183   5.531   2.799   3.995
    7.290   6.332   3.683   3.383   2.479   3.397   2.388   4.051   3.348   3.865
    6.773   7.030   4.271   4.688   2.712   3.921   5.130   5.450   3.503   6.367
    2.932   6.972   7.195   3.690   3.546   3.912   7.668   3.553   5.788   5.948
    4.906   2.180   1.548   2.514   5.939   4.253   3.265   6.183   5.478   3.483
    3.074   0.283  -1.735   1.345   4.150   1.456   3.851   3.339   1.540   3.847
    0.334   1.508   1.917   1.478   1.708   2.002   1.146   1.693   0.844  -0.610

    1.450   3.908
    4.081   5.299   8.023   6.257   5.626   5.495   6.816   3.176   4.886   3.350
    4.870   5.967   6.478   6.629   5.258   6.479   3.338   3.800   4.866   5.647
    3.478   3.470   2.206   4.915   5.401   3.144   4.949   5.550   4.963   5.837
    5.449   5.657   3.690   6.239   2.194   6.236   5.842   5.030   2.343   4.087
    7.142   6.204   3.894   3.075   2.928   3.337   2.210   3.882   3.637   4.241
    6.801   7.602   4.266   4.722   2.482   4.173   5.259   5.760   3.709   6.430
    3.250   7.186   7.010   3.745   3.364   3.822   7.845   3.324   5.275   5.752
    4.920   2.382   1.338   2.750   5.986   4.470   3.398   6.059   5.451   3.534
    2.660   0.432  -1.732   0.816   4.333   1.699   4.331   3.677   1.922   3.804
    0.047   1.406   2.047   1.425   1.921   2.673   1.564   1.656   1.427  -0.386

    1.500   3.863
    4.145   5.229   8.041   5.712   5.703   5.476   6.622   3.338   5.030   3.421
    4.735   5.512   6.267   6.345   5.496   6.865   3.695   3.555   5.002   5.673
    3.232   3.500   2.241   5.425   4.894   2.867   5.228   5.195   4.817   5.740
    5.574   5.680   3.882   6.182   2.042   5.844   5.779   4.881   2.759   4.173
    7.151   6.242   3.854   3.295   2.776   3.236   1.813   3.894   3.502   4.422
    7.069   7.808   4.058   4.359   2.274   4.234   5.094   5.766   3.601   6.479
    2.963   7.124   6.969   4.124   2.991   3.476   7.596   3.461   5.491   6.212
    4.671   2.533   1.095   2.996   5.987   3.986   3.402   5.705   5.296   3.586
    2.825   0.545  -1.783   0.832   4.368   1.748   4.028   3.750   1.946   3.903
    0.189   1.509   2.339   1.505   1.893   2.777   1.152   2.030   1.554  -0.520

    1.550   3.605
    4.276   5.339   8.175   5.484   6.408   5.657   6.508   3.402   4.637   3.794
    4.750   5.216   6.708   6.923   5.264   7.112   4.335   3.946   5.020   5.612
    3.017   3.489   2.084   5.045   4.539   2.819   5.229   5.385   5.011   5.482
    5.254   4.980   3.542   6.188   1.929   5.914   5.920   4.500   2.479   4.291
    7.649   6.196   3.838   3.487   2.682   2.374   1.472   3.765   3.822   4.655
    7.124   7.758   4.167   3.933   2.474   4.142   5.378   5.588   3.120   6.157
    2.763   7.410   7.198   3.908   2.842   3.848   7.681   2.960   5.865   6.248
    4.422   2.412   1.468   3.368   5.955   4.327   3.711   5.735   5.649   3.702
    3.247   1.155  -1.846   1.346   4.944   1.764   3.633   3.631   2.017   4.048
    0.640   0.891   1.918   1.781   1.771   2.536   1.077   2.289   1.726  -0.442

    1.600   3.553
    4.369   5.999   8.204   5.792   5.872   5.619   6.764   3.696   4.276   4.346
    5.283   4.713   6.801   7.234   5.134   6.695   4.291   3.924   4.537   5.412
    2.977   3.371   1.723   4.648   4.910   3.234   5.543   5.200   4.986   5.815
    5.274   4.982   3.736   5.828   1.819   6.099   5.600   4.623   2.214   3.617
    7.676   6.117   4.351   3.168   2.854   2.460   1.557   3.843   3.830   4.370
    6.883   7.781   4.407   3.816   2.800   4.170   5.313   5.841   3.409   6.290
    2.592   7.093   7.411   3.866   2.695   4.197   7.421   2.468   5.675   5.972
    4.260   2.163   1.625   3.394   6.066   4.577   3.944   5.849   5.079   3.488
    3.346   1.737  -2.033   1.420   5.121   1.793   3.499   3.835   2.283   4.120
    0.413   0.947   1.761   1.976   1.941   2.719   1.388   2.239   1.798  -0.545

    1.650   3.484
    4.442   5.553   8.441   5.536   6.010   5.680   6.941   3.697   4.410   4.476
    5.541   4.675   6.845   6.833   5.153   6.679   4.099   3.653   4.393   5.385
    2.674   3.844   1.693   4.730   4.950   2.837   5.625   5.697   4.824   5.915
    5.612   4.875   3.831   5.502   1.673   5.726   5.354   5.059   2.247   3.851
    7.324   5.314   4.445   3.594   3.375   2.805   1.963   4.114   3.584   4.210
    7.015   7.980   4.500   3.891   2.386   4.411   5.489   5.901   3.672   6.704
    2.171   7.373   7.216   3.990   2.433   4.122   7.581   2.912   6.119   5.640
    4.174   2.280   1.887   3.113   6.094   4.473   4.307   5.594   5.375   3.691
    3.308   1.379  -2.405   1.690   4.900   2.043   3.556   3.941   2.542   4.090
    0.458   0.966   1.711   2.124   1.605   2.063   1.363   2.212   1.794  -0.585

    1.700   3.959
    4.563   5.416   8.170   5.694   6.504   5.358   7.200   3.837   4.102   4.351
    4.703   4.967   6.796   7.136   5.317   6.042   4.401   3.781   4.567   5.472
    2.761   4.119   1.891   4.675   5.134   3.526   5.587   5.207   5.370   6.142
    5.218   5.361   4.344   5.106   1.755   5.228   5.133   4.677   2.372   3.980
    7.151   5.054   4.675   3.632   3.623   3.482   1.964   3.894   4.208   3.531
    6.907   7.825   4.847   4.139   2.000   4.750   5.440   6.058   3.958   6.351
    2.277   7.508   7.023   3.612   2.730   3.948   7.545   3.145   6.771   5.658
    3.727   2.210   1.835   2.653   6.710   3.881   4.642   5.322   4.976   3.818
    3.521   1.806  -2.050   2.074   4.616   1.852   3.936   3.972   2.119   3.720
    0.590   0.783   1.791   1.942   1.877   1.546   1.615   2.183   1.597  -0.886

    1.750   4.241
    4.829   5.454   8.084   5.323   6.603   5.531   7.219   3.077   3.947   4.525