
This full-field turbulence file was generated by TurbSim (v1.40, 12-Sep-2008) on 27-May-2021 at 14:31:06.

 | u-comp |  Y  x  Z  | Grid Resolution (Y x Z) | Time-step | Hub Elev | Mean U |
            10    10     15.556     15.556          0.050      89.60      3.00

 Z Coordinates (m):
  -70.000 -54.444 -38.889 -23.333  -7.778   7.778  23.333  38.889  54.444  70.000

 Y Coordinates (m):
  -70.000 -54.444 -38.889 -23.333  -7.778   7.778  23.333  38.889  54.444  70.000

    0.000   3.650
    3.017   2.520   2.519   4.251   3.974   2.434   1.735   0.555   1.273   3.668
    2.557   2.968   2.750   4.284   3.914   1.567   2.115   2.138   3.519   3.325
    5.141   3.935   3.838   2.690   3.751   2.954   4.316   2.671   4.816   3.661
    4.258   4.113   3.734   3.808   2.938   2.582   2.867   3.725   4.611   3.935
    4.739   3.059   1.711   2.918   2.099   1.667   3.096   4.516   3.482   3.326
    4.331   3.247   1.525   0.470   1.609   2.731   2.601   4.448   4.170   0.867
    3.447   1.804   4.218   2.719   1.956   2.010   2.890   4.580   2.562   2.277
    3.344   2.920   4.025   2.268   2.425   2.136   2.888   2.763   2.262   5.172
    1.563   3.409   3.335   1.524   1.094   2.828   1.887   2.058   3.521   3.418
    0.127   1.060   1.428  -0.357   1.224  -1.831   1.330   1.969   3.314   4.203

    0.050   3.750
    3.042   2.232   2.629   4.464   3.799   2.705   1.373   0.799   1.487   3.476
    2.405   3.175   2.830   4.065   3.937   1.728   2.008   2.365   3.584   3.481
    5.260   4.070   3.881   2.966   3.913   2.815   3.985   2.391   4.916   4.024
    4.154   4.146   3.547   3.866   3.062   2.539   3.372   3.763   4.337   3.864
    4.719   3.168   1.869   3.061   2.122   2.015   3.284   4.555   3.349   3.012
    4.262   3.538   1.357   0.670   1.672   2.784   2.833   4.459   4.253   0.752
    3.433   1.804   4.435   2.821   2.119   2.121   2.841   4.589   2.420   2.900
    3.707   3.121   4.183   2.162   2.341   2.341   2.910   2.791   1.794   5.138
    1.388   3.432   3.128   1.582   1.164   2.806   1.640   2.163   3.062   3.295
    0.320   1.050   1.275  -0.352   0.795  -1.942   1.243   1.966   3.414   4.248

    0.100   3.596
    3.276   2.230   2.791   4.340   3.698   2.683   1.514   0.703   1.599   3.599
    2.701   3.182   2.767   4.198   3.630   1.664   1.891   1.816   3.795   3.486
    5.556   3.953   3.708   3.235   3.958   2.943   3.736   2.504   4.868   3.892
    4.395   4.627   3.855   3.700   2.950   2.731   3.546   3.838   4.333   4.157
    4.505   2.907   1.656   2.826   2.425   1.878   3.165   4.930   3.514   2.914
    4.403   3.399   1.359   0.796   1.477   2.783   2.783   4.551   4.202   0.765
    3.189   1.780   4.305   2.694   2.185   2.140   2.699   4.777   2.485   2.999
    3.521   3.307   4.208   1.944   2.241   2.323   2.668   2.447   1.437   4.938
    1.599   3.470   3.160   1.850   1.050   2.563   1.793   1.804   3.063   3.124
    0.110   1.101   1.386  -0.331   0.902  -1.905   1.046   1.726   3.302   4.077

    0.150   3.689
    3.191   2.304   2.676   4.557   3.654   2.753   1.411   0.617   1.463   3.825
    2.378   3.014   2.655   3.885   3.996   1.574   1.979   1.511   3.888   3.395
    5.614   3.628   3.933   3.499   4.238   3.013   3.713   2.469   4.664   4.015
    4.581   4.717   3.898   3.991   2.938   2.759   3.416   3.605   4.183   4.151
    4.325   2.720   1.599   3.181   2.394   2.242   3.328   4.997   3.614   2.866
    4.520   3.576   1.425   0.950   1.548   2.725   2.856   4.692   4.182   0.993
    3.516   1.770   4.030   2.594   2.268   1.828   2.898   4.451   2.092   3.097
    3.537   3.452   4.324   2.104   2.289   2.506   2.718   2.211   1.697   4.930
    1.432   3.365   3.104   1.708   0.813   2.466   1.646   1.884   3.455   3.215
    0.318   0.952   1.498   0.027   1.060  -1.723   1.206   1.805   2.938   4.074

    0.200   3.624
    3.119   2.182   2.624   4.643   3.753   2.909   1.525   0.720   1.585   3.925
    2.289   3.164   2.466   3.755   4.084   1.861   1.927   1.670   3.531   3.412
    5.496   3.923   3.891   3.789   4.299   3.109   3.889   2.445   4.456   4.268
    4.348   5.022   3.765   4.120   2.872   2.415   3.256   3.298   4.091   3.831
    4.263   3.086   1.464   3.343   2.162   2.249   3.245   4.852   3.727   2.960
    4.353   3.775   1.489   1.288   1.825   2.415   2.693   4.357   4.319   0.859
    3.345   2.056   4.186   2.381   2.382   1.491   3.031   4.656   2.090   2.939
    3.726   3.326   4.574   1.982   2.528   2.428   2.755   2.091   2.038   4.655
    1.417   3.035   3.436   1.460   0.895   2.484   1.566   1.902   3.731   3.308
    0.115   1.223   1.309  -0.012   1.114  -1.952   1.132   1.952   2.949   4.452

    0.250   3.286
    2.885   1.725   2.597   4.957   3.889   3.084   1.270   0.912   1.336   3.660
    2.156   3.401   2.447   3.617   3.607   1.860   2.024   1.550   3.344   3.380
    5.700   3.675   3.691   3.824   4.375   3.264   3.849   2.450   4.542   4.559
    4.387   4.983   3.740   3.923   2.425   2.430   3.422   3.160   4.041   3.556
    4.129   2.859   1.482   3.379   1.728   2.258   3.032   4.436   3.580   3.038
    4.398   3.531   1.432   1.670   1.957   2.532   3.024   4.413   4.254   0.713
    3.557   2.035   4.132   2.655   2.353   1.576   3.086   4.756   2.357   2.995
    3.611   3.260   4.540   2.104   2.507   2.312   2.462   2.150   1.975   4.553
    1.578   3.014   3.603   1.699   1.158   2.676   1.552   1.816   3.995   3.255
   -0.001   1.074   1.350  -0.262   1.219  -1.783   1.253   2.153   3.188   4.601

    0.300   3.334
    2.789   1.903   2.826   5.117   4.035   3.124   1.344   0.841   1.568   3.579
    2.019   2.995   2.608   3.557   3.318   1.699   2.078   1.447   2.991   3.456
    5.739   3.438   3.879   3.592   4.516   2.915   3.700   2.319   4.849   4.075
    4.641   4.822   3.548   3.808   2.661   2.663   3.209   3.013   3.895   3.971
    4.167   2.543   1.254   3.394   1.744   2.087   2.785   4.449   3.473   2.550
    4.210   3.502   1.617   1.506   2.030   2.474   3.385   4.241   3.725   1.031
    3.772   1.860   3.840   2.432   2.191   1.941   3.030   4.996   2.177   2.932
    4.097   3.037   4.308   2.303   2.464   2.398   2.553   2.281   1.849   4.290
    1.523   3.067   3.454   1.922   1.062   2.353   1.527   1.627   4.089   3.438
   -0.109   1.074   1.498  -0.406   1.257  -1.678   1.368   2.023   3.223   4.903

    0.350   3.233
    2.546   1.910   2.992   5.139   3.746   3.156   1.400   0.836   2.068   3.924
    1.976   2.732   2.694   3.485   3.689   1.733   2.154   1.329   3.407   3.367
    5.537   3.439   4.087   3.501   4.487   3.077   3.579   2.241   4.809   4.028
    4.521   4.682   3.700   3.787   2.833   2.648   3.342   2.976   3.800   4.043
    4.063   2.642   1.469   3.247   1.734   2.076   3.067   4.692   3.512   2.467
    4.070   3.453   1.851   1.394   1.633   2.769   3.157   4.292   3.820   1.156
    3.873   1.847   3.713   2.376   2.444   2.243   2.781   5.166   2.266   2.894
    4.300   2.738   4.613   2.361   2.671   2.687   2.736   2.387   1.989   4.660
    1.258   2.972   3.432   1.995   1.214   2.078   1.324   1.444   4.157   3.315
    0.031   0.988   1.395  -0.212   1.342  -1.731   1.577   2.267   3.395   4.551

    0.400   3.342
    3.010   2.139   3.033   5.016   3.719   3.301   1.230   0.640   1.979   3.941
    2.207   2.781   2.965   3.587   3.832   1.638   1.997   1.620   3.565   2.869
    5.910   3.541   4.132   3.663   4.296   3.183   3.432   1.967   4.813   3.942
    4.323   4.713   3.998   3.790   2.909   2.774   3.488   3.103   3.462   4.370
    4.149   2.696   1.471   3.300   1.865   2.054   2.848   4.670   3.449   2.422
    3.968   3.485   1.865   1.405   1.933   2.717   3.100   4.386   3.788   1.357
    4.259   1.993   3.840   2.575   2.256   2.363   2.738   5.327   2.487   2.635
    4.067   3.070   4.492   2.386   2.543   2.742   2.549   2.355   1.868   4.586
    1.146   3.312   3.753   1.768   1.281   2.077   1.378   1.591   4.076   3.034
   -0.187   1.025   1.325  -0.192   1.560  -1.519   1.481   2.332   3.465   4.429

    0.450   3.577
    3.075   2.023   3.142   4.705   3.677   2.942   1.390   0.712   2.181   3.776
    2.433   2.657   2.964   3.454   3.928   1.743   2.097   1.755   3.354   2.912
    5.974   3.557   3.858   3.726   4.198   3.380   3.333   2.112   4.875   3.950
    4.286   4.815   3.943   3.657   2.995   2.721   3.179   3.444   3.542   4.134
    4.031   2.366   1.754   3.090   1.828   2.249   2.785   4.637   3.582   2.579
    3.917   3.320   1.929   0.993   2.056   2.606   3.423   4.045   3.872   1.325
    4.430   2.071   3.822   2.834   2.370   1.953   2.576   5.473   2.453   2.782
    3.823   2.971   4.724   2.479   2.793   2.983   2.924   2.422   2.131   4.614
    1.036   3.435   3.630   1.495   1.447   2.597   1.393   1.773   3.956   3.185
   -0.141   0.808   1.438  -0.177   1.584  -1.787   1.746   2.285   3.278   4.314

    0.500   3.427
    3.178   1.831   3.152   4.591   3.627   2.584   1.698   0.511   2.260   3.898
    2.827   2.629   2.845   3.603   3.626   1.621   2.117   1.894   3.460   2.708
    5.653   3.817   3.652   3.869   4.040   3.612   3.413   2.244   4.690   4.000
    4.345   4.629   4.003   3.608   3.078   2.890   3.002   3.162   3.594   4.125
    4.243   2.339   1.785   2.844   1.768   2.056   2.415   4.636   3.643   2.654
    3.871   3.169   2.012   1.040   2.224   2.431   3.170   4.015   4.115   1.313
    4.442   1.862   4.050   2.412   2.575   1.919   2.421   5.151   2.821   2.629
    3.594   2.595   4.873   2.386   2.770   3.453   2.647   2.676   2.134   4.717
    1.139   3.473   3.506   1.232   1.266   2.550   1.511   1.869   4.044   2.884
    0.008   1.019   1.493  -0.138   1.141  -1.945   1.627   2.285   3.220   4.264

    0.550   3.580
    3.284   1.754   3.137   4.430   3.640   2.512   1.943   0.513   2.365   3.520
    3.261   2.498   2.934   3.470   3.404   1.816   2.141   2.098   3.307   2.638
    5.417   3.878   3.775   3.792   4.003   3.698   3.511   2.163   4.701   4.106
    4.390   4.576   4.191   3.652   2.808   2.756   2.888   3.510   3.450   3.985
    4.341   2.432   1.500   3.234   1.697   1.748   2.071   4.256   3.685   2.546
    4.127   3.411   1.880   1.052   2.264   2.908   3.303   3.791   4.399   1.428
    4.538   1.602   4.290   2.427   2.459   2.018   2.744   5.378   3.135   2.436
    3.370   2.647   4.798   2.522   2.503   3.440   2.625   2.701   2.280   4.662
    0.962   3.344   3.814   1.189   1.125   2.435   1.642   2.192   3.846   2.654
   -0.107   1.367   1.611  -0.026   1.276  -1.605   1.479   2.329   3.620   4.338

    0.600   3.620
    3.033   1.543   2.958   4.538   3.486   2.473   1.706   0.593   2.526   3.772
    3.161   2.723   2.633   3.226   3.263   1.806   2.163   1.843   3.105   2.679
    5.390   3.805   3.566   3.814   4.114   3.863   3.545   2.001   4.894   3.732
    4.213   4.588   4.009   3.526   2.587   2.776   3.047   3.432   3.527   4.341
    4.366   2.478   1.518   3.385   1.648   1.985   2.188   4.384   3.632   2.523
    4.068   3.425   1.680   1.249   2.423   2.983   3.230   3.504   4.227   1.387
    4.445   1.978   4.185   2.636   2.517   2.074   3.034   5.388   3.157   2.387
    3.348   2.291   4.680   2.838   2.496   3.217   2.602   2.411   2.086   4.696
    0.593   3.152   3.920   1.221   1.044   2.389   1.724   1.896   3.917   2.590
   -0.286   1.358   1.784   0.016   1.371  -1.549   1.607   2.385   3.440   4.221

    0.650   3.543
    2.887   1.615   2.783   4.399   3.430   2.206   1.677   0.654   2.057   3.745
    3.314   2.982   2.786   3.165   3.084   1.874   2.075   2.280   2.864   2.759
    5.155   3.678   3.482   3.964   3.928   3.939   3.587   1.906   5.290   3.566
    4.448   4.406   3.872   3.313   2.695   3.107   3.178   3.197   3.585   4.293
    4.634   2.419   1.220   3.224   1.557   2.020   2.135   4.485   3.395   2.434
    4.063   3.395   1.905   1.011   2.137   3.192   3.359   3.759   3.679   1.633
    4.421   1.784   4.352   2.715   2.148   2.235   2.599   5.408   3.207   2.233
    3.059   2.120   4.451   2.988   2.133   3.135   2.629   2.339   1.897   4.646
    0.631   3.275   3.824   1.596   1.103   2.616   1.528   1.804   4.061   2.668
    0.036   1.407   1.926   0.120   1.508  -1.568   1.548   2.433   3.466   4.080

    0.700   3.799
    2.801   1.698   2.850   4.729   3.813   2.652   2.165   0.643   1.824   3.953
    3.184   2.718   2.601   3.010   3.003   1.774   1.758   2.821   2.743   2.889
    5.169   3.627   3.810   3.852   4.154   3.825   3.721   2.078   4.846   3.652
    4.639   4.310   3.915   3.305   2.976   2.803   3.284   3.431   3.802   4.438
    4.998   2.548   1.257   2.869   1.625   2.172   2.303   4.548   3.615   2.518
    3.849   3.483   1.964   0.546   2.259   3.101   3.220   3.764   3.388   1.453
    4.531   1.991   4.269   2.771   2.229   2.381   2.556   5.548   3.728   2.370
    3.318   2.161   4.255   2.507   1.933   3.118   2.583   2.514   2.184   4.456
    0.331   3.368   3.811   1.654   0.688   2.451   1.162   2.014   4.124   2.587
   -0.178   1.472   1.681   0.363   1.457  -1.602   1.343   2.168   3.388   3.798

    0.750   3.638
    3.046   1.542   3.028   4.960   3.864   2.372   2.280   0.373   1.699   4.210
    3.053   2.662   2.484   3.162   3.054   1.896   2.266   2.849   2.820   2.551
    5.157   3.755   3.672   4.173   4.178   3.717   3.467   2.204   5.075   3.411
    4.864   4.499   3.830   3.401   2.961   2.454   3.144   3.538   3.556   4.541
    5.238   2.357   1.545   2.519   1.478   2.078   2.607   5.006   3.418   2.686
    3.636   3.386   1.997   0.407   2.329   2.885   3.060   3.657   3.344   1.751
    4.529   1.885   4.018   2.556   2.306   2.557   2.400   5.549   3.442   2.330
    3.223   2.096   4.453   2.319   1.712   3.343   2.529   2.658   2.208   4.452
    0.194   3.148   3.802   1.755   0.657   2.123   1.678   2.073   3.843   1.974
   -0.181   1.102   1.560   0.330   1.318  -1.852   1.325   2.307   3.775   3.681

    0.800   3.205
    3.035   1.852   3.014   5.109   3.766   2.160   2.349   0.360   1.798   4.136
    3.114   2.784   2.204   3.168   2.963   1.641   2.070   2.864   2.935   2.899
    5.194   3.630   3.849   4.278   4.211   3.685   3.582   2.230   5.260   3.540
    4.998   4.479   3.940   3.448   3.098   2.436   3.059   3.811   3.608   4.527
    5.230   2.250   1.737   2.657   1.642   2.408   2.676   5.188   3.425   2.828
    3.767   3.462   2.007   0.465   2.490   2.779   2.853   3.797   3.241   2.069
    4.195   2.173   4.089   2.814   2.392   2.322   2.541   5.238   3.608   2.530
    3.327   2.271   4.191   2.306   1.723   2.983   2.712   2.579   2.255   3.981
    0.453   3.006   3.817   1.535   0.966   2.112   1.958   2.086   3.867   2.155
    0.164   1.153   1.605   0.135   1.389  -1.659   1.195   2.237   3.893   3.949

    0.850   3.207
    3.048   2.420   2.946   4.830   3.574   2.134   2.289   0.316   1.896   3.983
    3.236   2.988   2.094   3.228   3.050   1.622   2.095   2.984   3.236   3.082
    5.168   3.524   3.894   4.118   4.266   3.673   3.498   2.077   5.470   3.825
    5.183   4.530   4.156   3.447   3.118   2.588   3.064   3.593   3.561   4.075
    5.183   1.838   1.910   2.679   1.686   2.332   2.431   5.117   3.409   2.880
    3.862   3.596   1.964   0.597   2.387   2.926   2.725   3.928   3.062   1.798
    4.398   2.108   4.115   2.764   2.452   2.630   2.489   5.274   3.729   2.759
    3.223   2.107   4.183   2.224   1.756   2.982   2.630   2.545   2.224   3.841
    0.709   3.112   3.787   1.657   1.139   2.044   1.917   2.206   3.720   2.118
    0.564   1.256   1.777  -0.023   1.164  -1.628   1.231   2.179   3.977   4.115

    0.900   3.374
    3.222   2.240   2.935   4.935   3.727   2.007   2.323   0.710   2.001   4.052
    2.987   2.895   2.628   2.907   3.142   1.534   2.309   3.112   3.194   3.339
    5.235   3.744   4.018   3.681   4.233   3.831   3.362   2.066   5.373   3.815
    5.025   4.461   4.038   3.637   2.703   2.541   2.478   3.842   3.484   4.011
    5.089   2.033   1.551   2.611   1.696   1.987   2.387   5.234   3.660   2.722
    3.910   3.330   2.017   0.770   2.217   2.884   2.733   4.022   3.362   1.802
    4.731   2.395   4.260   2.803   2.474   2.263   2.531   5.054   3.603   2.586
    3.121   1.993   4.431   2.485   1.682   2.969   2.392   2.335   2.025   3.919
    0.988   3.118   3.762   1.675   1.305   1.667   1.892   1.847   3.923   1.967
    0.505   1.333   1.692   0.049   1.145  -1.136   1.403   1.857   3.397   4.164

    0.950   3.383
    3.295   1.973   2.913   4.887   3.961   1.834   2.203   0.777   2.144   3.980
    3.069   2.889   2.503   2.814   3.038   1.113   2.225   2.995   2.953   3.035
    5.219   3.378   4.219   3.562   4.422   3.862   3.711   2.198   5.117   4.173
    4.777   4.425   3.797   3.449   2.760   2.675   2.376   3.993   3.629   4.061
    5.430   2.251   1.723   2.948   1.472   1.932   2.320   5.372   3.865   2.890
    3.972   3.161   1.940   0.631   1.998   2.750   3.011   4.062   3.656   1.713
    4.570   2.616   4.096   2.684   2.607   2.318   2.536   4.858   3.960   2.696
    3.192   1.920   4.457   2.524   1.810   3.251   2.297   2.477   1.923   4.022
    0.998   3.093   3.582   1.729   1.276   1.658   1.627   2.253   3.712   2.157
    0.512   1.422   1.626   0.196   1.052  -1.651   1.066   1.524   3.546   4.173

    1.000   3.366
    3.427   1.928   2.763   4.839   3.903   1.699   1.967   0.793   1.689   3.793
    2.969   2.706   2.281   3.011   2.802   1.103   2.259   3.123   2.751   2.993
    5.125   3.315   4.126   3.569   4.456   3.660   3.775   2.170   4.683   4.188
    4.886   4.062   3.587   3.536   3.061   2.564   2.491   4.036   4.012   4.265
    5.161   2.320   1.629   2.569   1.314   2.146   2.395   5.525   3.837   2.823
    4.129   3.249   1.882   0.589   1.849   2.532   3.131   4.129   3.528   1.358
    4.469   2.361   4.027   2.735   2.600   2.181   2.608   4.936   3.951   2.995
    3.277   2.016   4.377   2.538   1.881   3.464   2.076   2.732   2.164   4.232
    1.085   3.035   3.411   1.772   1.532   1.791   1.438   2.172   3.573   2.248
    0.509   1.363   1.586   0.027   1.383  -1.559   1.170   1.746   3.982   4.180

    1.050   3.391
    3.607   2.117   2.554   4.781   4.334   1.966   1.979   0.585   1.533   3.690
    2.687   2.752   2.576   3.233   2.799   1.300   2.357   2.880   2.851   2.891
    5.200   3.119   4.051   3.513   4.420   3.380   3.552   2.255   4.796   4.213
    4.778   4.230   3.491   3.599   2.931   2.926   2.364   3.706   4.182   4.361
    4.979   2.281   1.816   2.602   0.986   2.312   2.165   5.389   3.941   2.729
    4.358   3.423   2.041   1.116   2.148   2.347   3.038   4.114   3.447   1.229
    4.355   2.284   3.788   3.012   2.579   2.408   2.852   4.573   3.729   2.984
    3.283   1.806   4.659   2.973   1.838   3.246   2.305   2.288   2.404   4.292
    0.669   3.022   3.241   1.734   1.823   1.935   1.314   2.153   3.615   2.333
    0.310   1.326   1.554   0.060   1.938  -1.575   1.089   1.870   3.534   4.102

    1.100   3.226
    3.256   1.962   2.587   4.849   4.572   1.997   1.746   0.658   1.452   3.612
    2.805   2.859   2.599   3.203   3.087   1.286   2.352   3.175   2.874   2.862
    5.139   3.172   3.934   3.561   4.143   3.547   3.157   2.302   4.856   4.142
    4.669   4.666   3.580   3.706   2.982   3.057   2.375   4.041   4.384   4.278
    4.980   2.388   1.778   2.204   1.265   2.002   2.322   5.387   3.672   2.546
    4.327   3.454   2.091   1.195   2.134   2.488   2.996   4.380   3.341   1.419
    4.221   2.287   3.656   2.867   2.777   2.236   2.641   4.308   3.774   3.168
    3.330   2.064   4.573   3.008   2.074   3.261   1.971   2.134   2.305   4.140
    0.684   3.282   3.545   1.906   1.900   2.184   1.434   2.157   3.520   2.271
    0.349   1.299   1.524   0.114   1.868  -1.398   0.997   1.935   3.730   4.202

    1.150   3.303
    3.575   2.158   2.456   4.790   4.587   2.342   1.569   0.494   1.488   3.532
    2.551   2.870   2.526   3.471   3.205   1.400   2.701   2.941   3.070   2.829
    5.356   3.005   3.806   3.433   4.576   3.564   3.341   2.734   4.928   4.336
    4.691   4.530   3.421   3.571   2.870   2.899   2.604   4.036   4.571   4.463
    5.171   2.724   1.971   2.374   1.440   1.989   2.794   5.214   3.793   2.682
    4.442   3.097   2.181   1.255   2.010   2.266   3.066   4.526   3.129   1.679
    4.299   2.424   3.678   2.783   2.606   2.158   2.446   4.343   3.709   3.204
    3.256   2.383   4.461   2.946   2.102   3.198   2.124   2.177   2.493   4.622
    1.035   3.082   3.376   1.634   1.833   2.097   1.618   2.082   3.717   2.408
    0.118   1.727   1.387   0.115   1.915  -1.251   1.179   1.812   3.661   4.007

    1.200   2.816
    3.638   2.153   2.429   4.752   4.724   2.214   1.584   0.728   1.251   3.293
    2.484   2.712   2.587   3.379   3.144   1.500   2.558   2.931   3.097   2.975
    5.255   2.957   4.119   3.432   4.692   3.644   3.181   2.653   4.941   4.701
    4.862   4.407   3.266   3.245   2.767   2.940   2.620   3.955   4.454   4.624
    5.208   2.394   1.845   2.497   1.812   2.145   2.742   5.264   3.772   2.655
    4.648   2.906   2.209   0.907   1.840   2.271   3.028   4.376   2.894   1.478
    4.204   2.370   3.956   2.796   2.697   2.050   2.888   4.523   3.684   2.931
    3.007   2.350   4.696   2.817   1.858   3.150   2.100   1.852   2.457   4.453
    1.073   2.884   3.576   1.813   1.625   1.925   1.820   2.249   3.292   2.188
    0.134   1.293   1.441   0.003   1.652  -0.965   0.799   1.703   3.613   3.962

    1.250   2.582
    3.978   2.259   2.592   5.226   4.950   1.908   1.658   0.707   1.128   3.534
    2.212   3.005   2.613   3.247   2.905   1.629   2.273   2.504   3.358   3.083
    5.184   3.047   3.887   3.449   4.310   3.645   3.105   2.671   4.801   4.544
    4.917   4.277   3.219   3.117   2.852   2.648   2.571   4.043   4.634   4.515
    5.265   2.242   2.026   2.642   1.562   2.408   2.817   4.797   3.755   2.756
    4.625   2.971   2.057   0.918   1.753   2.820   2.842   4.153   2.835   1.320
    4.259   2.290   3.937   3.067   2.743   1.946   2.990   4.049   3.584   2.762
    2.894   2.490   4.745   2.787   1.327   2.978   2.194   1.771   2.223   4.458
    1.204   2.982   3.557   1.756   1.731   1.991   1.904   2.207   3.626   1.922
    0.228   1.251   1.517   0.045   1.215  -1.004   0.713   1.753   3.937   3.942

    1.300   2.423
    3.807   2.210   2.814   5.319   4.828   1.715   1.761   0.831   1.090   3.307
    2.363   3.122   2.990   3.375   3.243   1.870   2.243   2.273   3.222   2.937
    4.718   3.267   3.909   3.573   4.488   3.447   3.273   2.288   4.901   4.502
    5.005   4.073   3.115   3.091   2.569   2.627   2.701   4.050   4.566   4.753
    5.561   2.211   2.139   2.622   1.600   2.557   2.807   4.638   3.572   2.649
    4.546   3.067   1.931   1.026   2.169   2.516   2.684   4.058   2.863   0.793
    4.268   2.256   3.993   3.186   2.864   2.044   3.220   4.056   3.537   3.101
    2.620   2.586   4.718   2.906   1.535   3.177   2.066   1.239   2.366   4.569
    1.264   3.115   3.166   1.578   1.827   2.267   1.862   1.979   3.451   2.059
    0.069   1.539   1.734   0.205   1.198  -1.042   0.953   1.797   3.873   4.059

    1.350   2.328
    4.081   2.313   2.680   5.229   4.388   1.934   1.692   0.954   1.208   3.461
    2.315   3.039   3.410   3.299   3.373   1.595   1.922   2.177   3.013   3.244
    4.818   3.463   3.516   3.342   4.453   3.129   3.099   2.121   4.661   4.426
    5.097   3.801   3.385   3.294   2.517   2.811   2.744   4.155   4.375   4.537
    5.678   2.280   2.271   2.568   1.810   2.451   2.722   4.596   3.341   2.493
    4.604   3.210   1.935   1.177   2.268   2.737   2.714   3.974   2.715   0.828
    4.176   2.231   3.766   3.323   2.752   2.055   3.056   3.949   3.237   2.774
    3.056   2.703   4.941   2.952   1.549   3.094   2.117   1.520   2.891   4.663
    1.218   2.929   2.828   1.242   1.777   2.123   1.796   2.110   3.601   1.952
   -0.143   1.565   1.792   0.296   1.342  -0.920   0.704   2.018   3.546   4.034

    1.400   2.464
    4.020   2.475   2.803   5.153   4.339   2.144   1.658   0.941   1.351   3.536
    2.279   2.976   3.186   3.158   3.267   1.771   2.212   2.123   2.729   3.296
    4.432   3.596   3.371   3.086   4.268   2.608   2.914   2.108   4.142   4.552
    5.367   4.409   3.584   3.390   2.585   2.921   2.717   4.122   4.464   4.773
    5.644   2.116   2.271   2.545   1.726   2.357   2.625   4.521   3.291   2.410
    4.671   3.195   1.853   1.133   2.350   3.070   2.705   3.946   2.589   0.843
    4.092   2.114   3.615   3.239   2.873   1.969   3.072   4.006   3.059   2.624
    3.360   2.803   4.956   2.939   1.598   2.968   2.372   1.638   2.789   4.374
    1.291   3.184   2.857   1.326   1.636   1.754   1.793   1.931   3.533   2.058
   -0.188   1.613   1.616   0.247   1.541  -1.165   0.696   2.008   3.733   3.905

    1.450   2.264
    3.819   2.744   2.823   5.334   4.093   2.326   1.671   1.111   1.575   3.570
    2.504   2.914   3.171   3.039   3.186   2.127   2.160   2.127   2.975   3.111
    4.239   3.743   3.431   3.018   4.210   2.703   2.988   2.516   4.402   4.495
    5.486   4.109   3.436   3.492   2.491   2.773   2.619   3.684   4.412   5.010
    5.781   1.968   2.188   2.876   1.544   2.211   2.633   4.636   3.393   2.430
    4.928   3.213   1.818   1.115   2.317   3.069   2.502   3.682   2.700   0.685
    4.121   2.085   3.577   3.333   2.637   2.203   2.862   3.956   3.165   2.501
    3.260   2.887   4.757   2.867   1.542   2.962   2.381   1.699   2.564   4.396
    1.454   2.984   2.886   1.293   1.759   1.670   1.923   2.151   3.418   2.035
   -0.039   1.857   1.235  -0.148   1.457  -1.060   0.520   2.254   3.904   4.152

    1.500   2.198
    3.471   2.813   2.796   5.323   4.180   2.415   2.013   0.612   1.966   3.529
    2.118   3.244   3.233   3.035   3.273   2.245   2.398   2.155   3.436   2.964
    4.222   3.745   3.285   3.024   3.815   2.629   3.204   2.143   4.327   4.333
    5.637   4.160   3.631   3.344   2.595   2.773   2.680   3.696   4.558   4.990
    5.513   1.984   2.362   2.714   1.494   2.198   2.799   4.709   3.609   2.350
    4.983   2.930   1.900   0.948   2.350   2.877   2.487   3.614   2.332   0.912
    4.357   2.002   3.473   3.173   2.189   2.482   2.730   3.875   3.192   2.073
    3.231   3.026   4.773   2.844   1.690   3.198   2.322   1.770   2.917   4.415
    1.542   3.010   2.872   1.193   1.670   1.670   2.014   2.346   3.276   2.144
   -0.093   1.778   1.439  -0.064   1.192  -0.875   0.195   1.827   3.843   4.271

    1.550   2.280
    3.304   2.867   2.714   5.188   3.972   2.541   2.250   0.664   1.891   3.373
    2.302   3.570   3.138   3.252   3.131   2.351   2.157   1.985   3.210   3.038
    4.470   3.659   3.360   3.039   3.947   2.642   3.381   2.237   4.506   4.300
    5.548   4.291   3.775   3.567   2.707   2.849   2.737   3.722   4.977   5.047
    5.244   2.251   2.274   2.796   1.805   2.043   3.082   5.020   3.059   2.338
    4.936   2.986   2.040   1.082   2.314   2.737   2.541   3.596   2.329   1.160
    4.606   2.319   3.636   2.803   2.533   2.195   2.610   4.113   2.753   2.054
    3.285   2.826   4.513   2.820   1.863   3.146   2.097   1.864   2.903   4.291
    1.667   3.054   2.519   1.176   1.469   1.298   2.203   2.466   3.120   2.158
   -0.395   1.689   1.377  -0.055   1.271  -0.569   0.156   1.644   3.627   4.522

    1.600   2.726
    3.157   3.168   2.764   5.185   3.759   2.459   1.822   0.740   1.545   3.387
    2.187   3.432   3.185   3.421   3.163   1.999   2.408   2.446   3.205   3.052
    4.499   3.434   3.542   3.066   3.990   2.511   3.185   1.941   4.617   4.748
    5.348   4.199   3.666   3.853   2.751   2.805   2.827   3.786   4.812   5.286
    5.347   1.797   2.253   2.677   1.936   2.102   3.486   5.066   3.086   2.260
    4.803   2.913   2.117   1.235   2.424   2.815   2.652   3.653   2.444   0.916
    4.578   2.099   3.546   2.993   2.460   2.534   2.689   3.968   2.756   1.987
    3.015   2.574   4.417   2.485   1.818   3.227   2.313   1.848   3.032   4.145
    1.611   3.062   2.338   1.204   1.364   1.019   2.004   2.618   3.008   2.317
   -0.393   1.602   1.247   0.073   1.244  -0.236   0.664   1.775   3.539   4.228

    1.650   2.729
    3.556   3.315   2.635   5.284   4.074   2.321   1.986   0.731   1.388   3.643
    2.330   3.482   3.116   3.557   3.051   1.866   2.761   2.606   3.114   2.980
    4.418   3.599   3.372   3.070   4.072   2.603   3.247   1.746   4.497   4.910
    5.178   4.074   3.801   3.464   2.837   2.702   2.796   3.391   4.507   4.963
    5.563   1.702   2.214   2.752   1.907   2.212   3.406   5.207   3.034   2.268
    4.718   2.822   2.111   1.266   2.138   2.982   2.436   3.604   2.328   0.967
    4.446   2.076   3.635   2.941   2.537   2.711   2.995   4.123   2.714   2.137
    3.040   2.527   4.380   2.724   1.954   3.034   1.971   1.905   2.903   4.058
    1.444   3.084   2.585   0.918   1.465   0.891   1.956   2.651   3.271   2.158
   -0.168   2.051   1.259   0.079   1.105  -0.298   0.791   1.669   3.497   3.873

    1.700   2.626
    3.639   2.819   2.583   5.015   4.004   2.210   1.890   1.041   1.382   3.739
    2.388   3.366   3.202   3.597   3.372   1.957   2.656   2.181   3.194   2.998
    4.348   3.492   3.633   2.802   4.052   2.480   3.421   1.362   4.841   4.509
    5.353   4.314   3.867   3.388   3.167   2.568   2.680   3.611   4.624   4.946
    5.567   1.672   2.148   2.890   2.149   2.318   3.394   5.040   3.340   2.304
    4.582   2.585   2.138   1.313   2.226   2.825   2.250   3.543   2.501   1.182
    4.634   1.912   3.911   2.963   2.835   2.596   2.807   4.331   2.870   2.242
    3.263   2.719   4.333   2.594   2.116   2.907   1.830   1.953   2.832   4.146
    0.978   3.101   2.816   1.103   1.386   0.813   1.776   2.765   3.278   2.255
   -0.010   1.694   1.541   0.199   0.823  -0.422   1.016   1.544   3.610   3.956

    1.750   2.635
    3.295   2.505   2.768   4.975   4.228   2.060   2.186   1.342   1.404   3.974