
This full-field turbulence file was generated by TurbSim (v1.40, 12-Sep-2008) on 21-May-2021 at 12:51:23.

 | u-comp |  Y  x  Z  | Grid Resolution (Y x Z) | Time-step | Hub Elev | Mean U |
            10    10     15.556     15.556          0.050      80.00     50.00

 Z Coordinates (m):
  -70.000 -54.444 -38.889 -23.333  -7.778   7.778  23.333  38.889  54.444  70.000

 Y Coordinates (m):
  -70.000 -54.444 -38.889 -23.333  -7.778   7.778  23.333  38.889  54.444  70.000

    0.000  46.018
   46.963  39.989  43.222  42.131  44.873  45.536  42.139  35.284  42.316  44.630
   46.047  43.662  42.657  45.621  44.054  40.497  40.735  43.095  45.585  43.578
   48.161  46.163  46.668  42.997  46.660  39.938  38.242  41.326  41.315  44.998
   47.291  45.706  48.853  43.927  42.615  42.951  41.539  38.956  43.170  46.398
   45.798  42.377  39.082  36.387  46.686  45.766  41.136  39.267  38.611  40.917
   43.939  46.123  41.039  35.893  41.913  41.956  42.868  40.354  34.741  38.447
   42.714  41.229  39.125  44.861  43.189  42.853  44.561  44.899  39.569  43.900
   41.696  42.689  36.440  40.759  38.594  39.341  40.533  41.773  38.585  39.613
   41.312  39.612  35.758  42.263  31.354  39.327  39.289  38.529  42.231  44.375
   32.706  34.808  34.546  32.369  37.165  34.800  34.005  39.796  39.518  38.694

    0.050  46.456
   47.703  40.620  41.442  42.412  42.745  46.226  43.191  37.142  40.372  46.279
   48.547  43.319  42.134  44.365  43.852  41.037  40.077  43.301  46.622  45.261
   47.441  44.540  44.985  43.530  47.635  38.011  36.164  41.162  42.524  44.775
   46.283  46.881  48.628  42.674  44.217  44.457  41.181  40.913  44.358  49.149
   47.196  41.599  40.360  37.485  47.846  45.875  41.752  39.816  38.196  42.553
   44.374  47.824  40.786  36.633  41.332  42.264  40.932  40.791  37.370  37.193
   44.134  41.547  40.410  45.580  39.288  41.913  46.386  46.268  39.503  45.284
   39.292  43.883  32.481  39.283  39.711  40.886  40.941  41.959  36.912  39.249
   42.245  39.762  35.398  40.031  31.062  38.420  38.981  38.849  41.965  45.017
   33.618  36.080  33.069  31.908  35.748  31.498  33.678  39.379  40.116  40.140

    0.100  46.009
   49.470  42.141  42.159  42.634  43.285  45.082  43.486  37.563  39.969  47.972
   46.490  44.378  43.569  45.149  46.011  39.195  38.273  44.683  44.223  46.368
   46.897  44.552  44.967  46.180  48.549  36.930  35.282  38.850  41.956  44.814
   44.935  45.388  46.174  42.150  44.102  43.635  43.088  40.758  44.922  48.267
   45.863  43.357  41.350  38.340  48.984  46.709  42.059  39.554  37.538  42.965
   42.661  48.282  43.398  38.359  39.713  41.933  39.973  37.620  37.990  37.507
   43.934  41.899  39.115  43.888  40.040  40.478  45.448  44.302  39.519  43.312
   39.486  42.036  32.267  39.244  38.924  42.563  40.155  41.539  36.821  40.297
   43.394  38.181  33.892  38.598  31.507  39.535  41.342  36.971  41.110  45.740
   32.970  37.008  31.720  29.474  33.683  31.751  35.646  40.678  40.979  39.095

    0.150  45.351
   48.969  41.458  40.841  42.035  43.124  43.235  43.887  37.752  42.259  48.028
   47.123  44.592  44.038  44.915  43.592  38.207  37.662  46.288  44.626  48.321
   48.145  43.387  44.396  45.370  45.633  37.790  36.648  37.985  42.954  43.080
   45.746  45.698  47.756  43.734  42.891  41.336  44.656  43.220  45.085  49.145
   48.050  44.391  38.717  38.597  47.122  46.991  41.137  37.993  37.445  42.935
   43.730  46.935  42.540  40.732  40.543  41.653  41.001  37.948  38.356  38.661
   43.825  40.329  38.372  42.458  43.027  40.382  42.509  42.129  37.695  42.706
   39.618  40.873  33.876  39.222  38.643  45.684  41.160  40.773  36.769  40.627
   42.158  39.606  33.363  38.623  30.199  39.060  40.349  37.046  41.581  44.871
   33.559  37.971  31.507  29.090  32.806  31.984  35.562  41.731  39.190  38.942

    0.200  43.210
   48.514  41.800  42.407  41.479  42.769  43.020  40.842  35.434  42.463  45.822
   47.289  44.238  45.187  45.032  42.871  38.376  36.205  44.298  46.324  50.406
   47.286  43.806  46.431  46.653  46.042  38.622  36.611  39.644  40.400  45.174
   48.014  44.792  44.669  44.870  44.265  41.176  46.646  42.373  46.474  48.654
   47.976  45.939  38.809  39.554  48.189  45.470  43.140  39.245  37.025  44.897
   43.747  46.375  45.102  42.009  41.060  43.694  39.832  38.621  39.239  38.178
   43.849  39.447  38.823  41.389  41.814  41.158  43.579  44.494  38.537  43.472
   40.151  40.643  35.517  38.564  37.827  43.002  41.035  42.553  37.305  39.579
   40.152  41.692  32.404  38.327  29.960  37.570  37.891  38.797  39.304  44.073
   31.486  37.864  32.868  28.632  33.739  32.060  37.594  41.862  39.509  38.999

    0.250  42.151
   46.428  41.256  43.910  41.105  43.197  45.283  42.155  34.220  43.169  43.899
   46.927  48.435  44.203  45.501  45.751  40.401  34.527  42.371  47.736  50.788
   46.214  43.512  48.468  47.525  47.674  38.716  36.650  40.034  39.513  44.503
   48.530  45.331  45.444  44.067  43.747  41.277  45.947  42.247  49.501  47.796
   47.149  46.539  41.306  41.546  47.517  45.055  44.861  39.044  33.593  42.414
   44.526  45.705  44.082  43.399  42.640  43.969  38.312  38.554  40.090  37.900
   45.440  38.611  41.690  41.104  42.379  38.966  46.844  44.776  39.770  41.154
   40.588  40.537  36.779  37.021  40.481  41.456  41.308  44.213  38.863  39.465
   40.383  44.463  31.644  36.596  30.445  36.185  36.615  38.261  40.899  44.631
   31.572  38.568  33.433  29.649  34.929  32.038  38.083  41.873  39.672  36.304

    0.300  40.836
   45.397  40.903  45.885  41.113  42.964  44.673  42.444  37.685  43.194  44.848
   46.189  47.937  44.679  45.971  46.995  42.411  34.337  41.825  47.396  48.846
   45.574  44.998  47.240  46.176  47.761  38.145  34.646  40.848  41.232  44.155
   47.956  44.679  45.335  43.705  45.079  39.825  45.840  41.056  49.801  50.158
   46.893  45.214  40.390  43.010  45.009  43.060  42.451  39.538  34.761  40.109
   44.396  46.414  42.650  43.952  43.649  44.238  37.014  40.143  40.200  38.303
   48.388  37.617  40.179  41.773  42.960  38.975  44.834  43.508  41.160  39.885
   40.330  40.957  38.115  36.650  42.908  41.634  38.208  42.672  39.155  39.017
   39.648  43.843  33.761  37.834  32.248  35.945  37.027  39.266  38.130  46.622
   31.516  38.361  32.912  29.860  36.607  31.496  38.827  43.023  39.157  35.870

    0.350  39.857
   45.756  42.559  43.456  41.971  45.046  45.120  41.298  37.925  42.993  46.367
   43.423  47.477  43.043  48.211  46.445  45.591  32.463  40.012  47.437  48.823
   45.518  43.273  46.840  47.707  47.790  36.638  33.957  39.996  41.508  43.965
   48.806  45.517  44.831  44.714  43.026  38.740  44.854  42.352  52.349  51.296
   47.441  44.957  39.640  43.571  44.422  42.636  44.055  39.859  35.972  39.695
   43.211  47.472  41.291  45.980  43.815  42.232  37.649  42.532  42.541  38.355
   47.138  37.070  39.600  42.090  43.312  39.546  44.652  42.858  40.846  40.045
   40.142  42.884  38.549  37.808  40.549  40.587  37.881  44.318  39.524  39.635
   38.462  43.013  34.648  36.047  32.880  38.197  37.947  38.857  38.255  45.223
   30.508  37.533  31.330  31.693  36.577  30.691  37.811  43.277  38.167  35.643

    0.400  40.930
   47.292  41.766  43.687  41.465  45.371  44.294  41.186  35.125  42.593  46.493
   43.654  46.754  45.284  46.944  45.194  45.652  32.587  40.569  45.096  48.195
   45.879  44.162  44.981  48.803  47.311  37.804  34.876  40.028  43.222  44.301
   47.762  44.301  46.476  43.516  41.142  39.228  44.143  42.257  52.014  53.509
   46.333  44.557  40.786  42.197  45.431  43.840  42.872  39.092  37.854  39.019
   45.063  47.307  42.753  45.507  45.570  40.349  40.926  43.214  41.990  37.639
   47.778  37.838  42.439  40.897  42.596  40.231  44.441  42.304  40.233  39.774
   38.231  41.951  38.296  38.608  42.458  38.975  40.555  44.031  39.506  40.832
   36.554  42.523  34.896  34.920  31.802  40.334  39.805  37.430  40.088  43.946
   31.756  35.350  29.942  31.960  36.771  34.016  39.978  41.934  36.727  35.756

    0.450  39.666
   47.068  40.776  43.481  42.052  44.439  43.511  41.896  37.139  40.923  48.016
   42.408  46.464  48.120  47.234  46.480  42.130  33.452  40.608  44.342  49.462
   48.345  43.922  45.520  48.988  46.864  36.245  35.536  40.182  44.407  45.224
   47.123  44.370  45.199  44.052  40.307  41.840  43.654  40.023  48.795  52.411
   44.597  45.740  39.705  41.241  45.154  46.396  42.674  37.426  40.333  38.233
   42.984  47.666  44.179  43.573  46.506  40.434  42.370  43.059  40.338  37.733
   48.668  39.350  42.162  40.858  41.480  40.741  42.103  43.434  37.050  42.186
   39.087  43.185  39.003  41.359  44.814  41.769  41.862  42.960  40.072  39.791
   39.392  42.809  36.223  35.473  31.350  40.628  40.878  36.657  39.130  44.908
   31.063  36.862  30.765  32.274  36.832  34.545  39.915  41.493  35.173  36.026

    0.500  40.886
   47.422  42.025  43.460  41.030  43.201  45.917  40.839  36.751  43.318  48.524
   41.959  46.318  44.472  47.762  47.288  41.091  31.851  40.974  45.278  48.496
   49.469  42.954  45.322  50.386  47.906  36.599  37.529  41.811  42.729  45.350
   48.122  44.669  44.779  45.888  42.201  42.328  43.452  40.185  47.086  51.446
   45.543  44.511  40.436  42.968  46.879  45.622  42.546  39.350  38.165  38.237
   44.009  45.527  44.800  44.191  42.589  38.514  42.024  45.487  40.987  38.974
   45.654  39.792  41.865  43.504  42.814  42.353  41.369  43.282  39.637  42.098
   37.140  45.819  37.811  40.181  45.326  42.433  41.528  42.657  42.759  37.787
   39.861  43.589  34.346  35.066  31.522  39.264  43.091  37.744  39.920  45.816
   30.310  37.278  32.182  33.538  37.072  33.858  38.227  42.558  36.040  34.817

    0.550  39.619
   46.621  44.771  43.838  40.339  41.770  46.584  42.505  35.255  44.855  46.367
   43.402  46.418  44.423  49.146  46.640  40.053  31.921  40.207  46.728  48.768
   48.723  44.421  46.439  49.971  48.385  36.797  36.735  41.583  40.826  47.874
   45.696  43.658  44.146  44.524  43.435  42.852  42.409  41.490  48.066  52.732
   44.807  44.077  38.521  43.896  44.445  46.611  41.758  41.190  42.224  38.051
   44.517  44.154  43.009  43.088  41.860  37.799  41.124  47.097  41.396  38.640
   44.523  39.469  42.127  44.978  42.427  44.144  42.271  42.416  39.086  43.687
   35.839  46.727  36.941  42.340  43.810  40.624  39.845  41.191  40.235  37.043
   40.224  43.340  33.102  35.354  30.846  39.146  43.688  36.712  39.128  47.194
   31.887  36.805  30.262  33.378  38.563  32.754  38.418  44.653  36.872  35.547

    0.600  39.046
   46.754  44.551  44.046  40.394  41.786  44.727  45.340  36.263  44.887  44.675
   42.726  45.447  44.229  49.360  46.667  40.174  32.183  41.146  43.404  48.151
   47.259  45.989  47.159  47.899  47.657  37.039  36.223  41.576  41.776  45.758
   47.333  41.281  44.468  44.648  42.756  43.338  43.062  41.160  49.057  50.429
   45.384  45.076  37.975  43.261  44.640  45.493  40.012  42.361  43.976  39.556
   43.830  44.863  42.515  43.745  41.968  35.084  41.060  48.690  40.573  40.105
   44.616  39.322  41.119  44.558  40.804  44.661  42.939  41.786  39.853  43.455
   36.925  45.440  38.616  42.020  43.639  40.199  41.890  40.182  37.856  39.309
   39.314  41.545  31.611  35.754  31.619  38.868  43.663  40.090  41.763  45.823
   30.003  36.648  31.226  33.514  39.382  32.231  38.594  45.660  36.520  37.036

    0.650  38.204
   47.126  43.905  44.965  42.024  42.178  47.567  48.005  37.508  45.172  44.260
   42.698  45.547  43.785  48.115  43.937  39.518  33.520  42.245  44.617  45.783
   46.249  45.242  47.853  46.419  46.784  37.476  35.131  40.335  41.502  45.305
   49.430  40.554  45.036  46.025  43.451  44.885  41.668  42.621  47.380  50.088
   44.729  44.965  41.196  43.752  44.403  43.781  39.363  42.717  41.831  39.250
   44.488  44.900  44.218  45.113  42.531  35.498  42.165  50.175  39.636  41.766
   45.371  40.562  42.060  43.904  41.045  42.297  43.910  38.762  39.667  42.282
   39.562  45.725  38.985  40.239  41.675  39.289  41.214  42.129  38.071  40.654
   37.467  39.036  34.803  37.804  32.860  39.212  42.447  41.628  42.291  47.872
   32.634  39.148  31.351  32.966  39.286  32.606  37.974  43.844  36.455  37.102

    0.700  39.791
   47.674  42.952  45.272  41.204  43.420  48.063  47.442  39.075  45.209  43.939
   43.928  48.080  44.169  49.046  43.772  40.700  33.008  43.618  43.530  45.224
   46.087  45.911  47.296  45.013  46.315  37.368  35.392  40.911  43.344  46.877
   49.703  39.964  42.625  43.575  40.531  45.356  40.683  43.862  47.407  51.167
   44.191  45.430  39.774  43.159  43.524  42.402  39.825  41.885  42.136  41.554
   43.579  46.834  43.650  41.434  42.941  35.531  41.712  48.063  38.636  41.728
   45.126  42.587  43.675  44.096  41.164  43.028  43.546  38.407  39.510  42.647
   40.448  46.533  39.541  41.235  41.076  39.860  40.627  40.963  38.669  40.396
   35.785  39.881  36.109  38.603  32.086  39.338  41.529  40.889  42.375  46.467
   35.287  39.598  33.946  33.622  39.345  31.270  34.708  42.234  40.279  36.855

    0.750  43.078
   47.608  41.038  45.903  38.227  43.775  48.016  46.038  39.636  43.417  45.264
   42.027  49.358  46.774  48.137  45.893  41.263  32.439  43.376  43.344  47.415
   45.655  45.468  46.465  47.005  43.957  38.252  35.683  40.950  45.006  46.746
   47.198  41.832  40.536  42.856  41.541  42.177  39.210  41.536  48.386  50.725
   46.402  45.281  40.016  41.944  43.730  42.857  41.968  42.499  42.585  43.325
   43.751  48.616  44.002  42.795  42.607  36.886  42.063  45.778  41.004  41.863
   46.252  41.383  44.072  44.380  40.728  44.741  44.052  38.793  41.586  43.782
   40.820  43.499  38.073  41.576  40.047  40.814  40.342  39.307  40.456  39.406
   33.288  40.104  35.214  39.151  33.825  39.451  41.859  40.199  40.543  47.895
   35.190  39.885  33.944  33.002  38.031  31.518  35.332  38.616  40.216  37.961

    0.800  39.865
   49.001  41.717  45.668  38.014  42.991  44.213  45.463  41.235  41.855  44.420
   40.232  50.951  47.552  46.516  46.797  42.069  32.090  40.409  42.827  48.943
   46.787  44.034  47.365  46.857  44.442  35.982  36.526  39.158  42.114  47.491
   49.122  39.839  42.325  41.438  42.502  41.945  38.789  40.620  47.369  47.867
   46.613  45.861  39.118  40.824  43.621  43.045  42.359  42.768  43.366  44.432
   44.049  49.485  43.517  42.506  42.806  37.641  40.062  44.764  41.640  41.167
   45.357  40.133  44.326  47.807  37.768  43.100  42.026  41.054  38.932  44.469
   40.175  44.117  39.499  44.552  39.546  41.517  40.159  39.708  40.355  38.761
   38.421  40.942  33.640  38.688  33.649  39.316  41.199  40.465  41.487  46.871
   35.149  41.058  33.554  32.053  36.944  31.067  35.249  37.182  39.014  39.970

    0.850  40.235
   47.531  39.963  47.343  37.042  43.342  43.679  46.018  42.826  43.573  45.715
   42.493  50.778  49.197  45.414  45.735  41.288  31.924  41.881  44.600  49.428
   44.901  44.814  47.596  46.858  45.246  36.578  35.962  38.963  42.939  46.645
   49.536  38.645  41.991  40.596  44.446  44.188  36.838  42.854  46.733  46.246
   45.321  46.636  42.058  39.991  41.491  44.249  40.907  43.066  45.284  45.422
   43.260  48.919  42.948  42.452  42.056  38.992  39.069  44.323  42.763  41.058
   47.279  42.848  46.195  45.905  38.908  42.456  40.892  40.815  38.058  44.366
   41.133  45.904  39.743  45.104  39.871  39.620  40.674  40.568  42.784  38.761
   39.343  41.036  35.517  37.964  31.951  39.290  41.710  38.269  42.685  45.107
   34.332  40.955  31.803  32.846  36.879  35.176  32.872  36.689  37.774  39.639

    0.900  41.373
   47.229  39.097  47.332  37.146  43.256  44.224  44.996  41.995  45.104  46.316
   44.358  50.151  47.802  45.664  45.936  41.576  33.739  41.650  43.210  49.922
   46.230  44.346  46.685  46.783  44.355  39.453  36.263  38.267  42.893  44.843
   52.436  39.522  43.689  41.904  41.591  41.204  37.818  42.253  43.592  47.431
   43.768  46.300  41.287  41.786  40.451  44.299  41.098  43.728  42.811  44.897
   44.872  48.792  44.181  44.213  45.314  41.690  40.531  42.082  41.212  41.761
   47.006  43.242  43.719  44.956  38.830  41.973  38.821  41.208  36.964  43.312
   40.716  45.123  40.529  46.180  39.873  41.691  43.923  38.332  42.352  39.603
   37.094  41.451  35.127  36.627  31.767  37.177  40.197  36.859  40.386  46.526
   33.702  40.717  31.236  32.925  38.208  37.301  32.120  37.679  35.918  39.352

    0.950  40.799
   47.868  38.903  47.069  39.388  46.020  45.011  46.633  39.769  45.472  47.941
   44.977  50.025  45.148  43.913  45.474  39.619  35.232  39.878  45.512  49.845
   46.615  42.117  45.684  44.998  46.603  40.690  37.371  38.737  43.982  45.499
   52.723  40.888  44.644  43.419  42.673  41.574  38.398  40.730  45.527  47.594
   45.483  45.225  41.278  42.959  40.861  42.565  40.747  41.657  43.168  44.778
   45.192  48.819  45.824  43.680  45.065  39.925  42.959  43.909  40.060  42.835
   45.353  43.995  44.297  46.276  39.610  42.961  37.860  41.057  37.506  41.285
   40.768  46.707  39.172  45.587  39.988  41.075  43.039  38.336  40.786  38.537
   38.938  42.359  33.338  36.762  33.024  39.865  41.910  37.618  40.266  44.983
   32.671  41.197  31.542  32.326  38.128  38.329  32.007  39.220  34.631  39.944

    1.000  40.134
   44.826  37.687  46.466  40.562  45.708  44.301  46.654  39.550  44.927  47.265
   45.592  49.618  46.976  44.865  44.241  40.847  32.460  40.398  46.967  50.754
   44.531  42.786  45.575  44.628  46.683  39.887  38.152  40.218  44.108  46.784
   52.957  40.606  42.904  44.988  44.492  41.847  40.777  41.360  45.437  46.460
   47.385  45.312  42.260  41.320  39.548  46.255  39.655  41.285  45.114  45.322
   45.535  49.132  46.152  43.513  42.903  41.848  45.457  44.113  39.177  41.451
   45.144  45.175  45.318  45.791  38.763  42.775  39.200  42.966  37.865  42.088
   40.738  47.567  40.671  46.969  43.311  38.552  42.875  39.611  40.312  37.563
   38.572  42.357  34.261  36.074  32.934  40.278  40.584  39.090  39.915  45.578
   32.694  39.213  34.475  32.250  39.466  40.414  34.220  39.478  33.670  39.940

    1.050  38.429
   45.107  39.570  45.899  38.989  47.325  44.339  45.221  40.696  46.018  45.505
   46.512  47.804  46.120  44.438  43.903  43.190  31.207  40.181  46.384  51.865
   43.794  41.385  45.252  44.594  44.279  41.624  38.588  40.920  44.559  46.542
   53.624  41.450  44.331  44.727  44.718  41.534  42.187  43.539  45.478  48.258
   47.684  45.879  41.208  41.479  38.532  45.935  39.918  43.466  44.865  43.761
   48.503  49.405  46.488  44.555  42.071  42.324  46.840  43.080  38.197  40.898
   46.136  46.544  44.775  45.723  38.662  42.845  40.412  42.939  38.463  42.853
   41.394  46.633  40.726  48.275  43.106  38.915  42.009  39.111  40.807  41.245
   36.220  41.426  35.169  36.814  33.582  39.653  39.465  38.239  39.953  45.981
   33.020  41.031  33.882  32.805  38.431  38.388  34.173  40.629  35.364  38.996

    1.100  36.561
   44.151  41.700  47.644  37.456  46.608  43.399  46.400  40.216  48.198  44.633
   47.099  47.845  46.322  42.823  43.392  44.243  34.214  39.716  48.178  51.483
   45.375  40.763  46.490  44.587  45.002  43.736  37.143  42.328  46.533  45.738
   53.218  43.343  45.257  44.251  43.244  41.549  40.079  44.970  45.010  49.553
   47.113  45.160  42.723  41.974  38.906  43.645  41.125  44.121  42.937  43.916
   48.878  49.462  46.896  44.504  40.961  41.287  45.312  42.141  41.126  40.155
   47.926  46.574  47.914  41.974  42.191  43.146  39.809  43.018  37.723  44.533
   40.552  46.189  40.763  47.530  42.835  40.680  42.685  38.240  40.946  39.921
   35.766  41.784  36.007  37.117  37.295  37.890  39.079  39.444  41.589  45.700
   30.732  39.792  35.706  32.541  38.718  36.721  35.132  40.742  36.873  39.502

    1.150  39.731
   44.603  39.225  48.884  37.322  45.604  39.751  45.919  41.092  47.304  44.488
   46.986  48.817  45.505  43.251  43.391  43.169  35.012  39.440  48.407  49.732
   46.254  40.916  47.025  45.909  44.837  46.999  37.486  42.815  46.106  47.547
   50.363  43.602  45.680  44.949  43.012  40.294  40.323  45.023  46.691  47.910
   46.219  44.080  42.199  41.365  40.252  45.929  40.668  45.212  42.302  42.539
   48.610  51.320  48.671  44.000  41.323  40.882  45.662  43.890  43.548  40.076
   48.386  46.108  46.417  42.354  39.808  45.218  39.729  43.722  38.317  44.079
   41.318  47.862  40.494  46.585  44.361  41.147  42.399  39.776  39.923  39.906
   38.440  42.078  36.815  36.971  37.129  37.174  40.901  40.499  39.204  45.636
   30.681  40.024  36.045  33.352  37.950  34.741  34.511  41.187  39.608  39.270

    1.200  39.755
   46.815  40.090  46.904  36.276  41.530  41.004  47.294  41.131  44.306  42.710
   47.277  46.692  47.995  42.581  40.592  42.231  35.723  40.215  46.916  49.855
   45.797  39.319  47.031  47.997  44.499  49.715  38.551  43.596  47.239  46.911
   51.324  44.973  48.388  45.379  44.122  41.655  40.791  44.618  47.870  48.099
   44.961  42.533  42.959  41.714  39.771  47.631  41.721  44.105  43.563  42.595
   46.604  50.501  46.296  41.649  40.343  40.412  45.822  41.990  42.145  39.093
   48.278  46.499  47.383  42.177  41.171  45.837  41.461  43.750  37.768  44.019
   41.479  46.214  39.207  44.890  42.120  43.070  42.398  40.187  39.536  37.575
   39.748  40.546  38.245  37.243  36.844  35.900  41.023  40.891  39.276  45.274
   31.324  39.400  36.863  35.499  35.436  35.776  36.159  42.135  38.268  37.128

    1.250  40.360
   47.764  42.063  46.332  37.012  42.991  40.885  46.752  41.724  45.150  42.665
   46.454  47.278  49.692  41.779  41.204  43.879  36.042  39.577  47.441  50.132
   45.050  42.257  47.169  49.235  44.947  48.544  41.400  42.986  47.105  47.439
   52.614  46.143  48.230  46.241  45.646  42.909  43.309  44.460  46.808  48.672
   45.037  42.038  42.781  41.810  41.203  48.787  42.906  43.646  43.794  45.728
   47.075  47.702  42.849  40.918  41.049  39.437  46.564  40.580  42.003  40.327
   46.378  44.872  45.709  42.026  41.076  45.747  41.755  43.765  39.162  42.678
   40.003  46.361  38.774  43.547  41.786  43.622  44.250  39.809  38.847  37.533
   40.448  39.151  37.957  37.458  36.535  35.456  40.669  42.980  38.796  46.312
   30.385  41.976  37.883  35.894  35.773  36.665  38.837  39.265  40.390  35.627

    1.300  40.705
   47.325  43.376  47.669  35.686  40.940  42.562  45.767  40.796  46.585  44.114
   47.753  47.586  50.891  45.015  39.070  43.284  34.676  39.247  48.928  50.914
   47.338  44.420  47.314  48.357  45.613  47.585  42.270  39.979  46.738  46.884
   52.756  43.339  49.230  47.242  45.492  42.466  44.596  43.455  45.592  46.613
   45.369  43.125  42.506  43.704  40.309  48.691  42.614  44.514  41.717  46.301
   47.865  47.732  43.025  44.109  41.161  39.911  47.744  41.176  41.714  39.989
   46.930  44.640  44.715  42.134  40.284  44.325  42.710  44.105  41.050  43.009
   40.910  46.548  37.489  42.787  42.805  45.027  44.593  41.216  37.711  37.589
   39.933  39.513  36.787  39.128  35.384  33.581  41.657  43.578  41.184  44.643
   28.413  40.981  36.631  36.167  35.222  36.264  40.222  39.340  42.342  37.815

    1.350  41.315
   48.007  42.885  46.870  38.911  40.389  41.716  48.508  40.563  47.781  44.994
   48.124  47.088  53.424  46.959  40.732  41.815  35.582  42.031  47.800  52.124
   46.525  44.359  47.714  46.900  45.506  48.759  42.628  41.567  47.123  46.113
   50.247  42.554  51.420  49.448  45.736  42.027  44.137  43.834  48.475  46.799
   44.024  43.021  43.771  43.500  43.153  47.306  42.202  44.936  42.564  46.559
   47.328  46.394  42.790  44.159  44.568  39.284  45.306  40.130  43.331  41.052
   46.457  45.626  45.900  42.441  39.999  44.274  41.592  41.920  40.463  41.710
   41.124  46.395  39.078  42.267  43.296  45.635  45.777  41.099  38.936  39.155
   40.039  42.991  37.256  40.366  37.191  35.276  41.601  43.191  41.334  44.638
   30.719  42.665  33.909  35.490  35.709  35.044  38.063  41.990  42.323  38.589

    1.400  41.413
   50.319  41.105  46.235  38.537  38.181  44.170  46.172  42.536  45.635  43.506
   49.845  46.471  51.292  45.823  41.392  41.577  36.733  40.589  47.767  53.483
   45.610  45.732  48.378  48.261  46.222  49.416  43.107  43.225  45.363  46.349
   48.748  41.421  49.564  51.619  46.324  43.114  45.587  45.538  49.286  47.865
   43.729  44.319  43.683  42.759  44.027  48.447  44.777  46.130  42.797  45.351
   48.102  48.898  45.406  42.361  45.253  41.178  45.298  41.436  42.825  40.485
   46.634  46.331  48.417  41.763  41.405  44.225  41.527  42.414  41.561  41.777
   41.563  47.687  39.949  41.190  44.517  44.479  46.110  41.408  37.506  40.517
   39.366  42.910  40.169  40.661  37.079  36.067  39.536  43.510  39.011  44.311
   31.002  41.100  34.761  35.478  35.405  37.892  36.884  39.815  41.316  39.420

    1.450  40.951
   50.464  38.905  46.837  38.314  38.344  44.236  44.917  44.777  45.836  42.501
   49.873  48.265  50.805  45.609  41.672  38.811  37.299  40.408  50.148  52.024
   46.063  47.276  49.033  46.450  45.456  47.596  44.020  43.849  42.204  46.841
   49.560  41.221  47.380  51.183  47.505  42.667  48.466  45.146  51.924  48.197
   42.915  44.360  43.930  42.999  42.985  48.445  43.716  45.891  42.494  44.445
   48.631  49.392  48.098  41.034  45.810  41.098  43.950  42.958  41.836  41.808
   46.198  46.370  46.838  44.843  39.158  42.258  43.065  41.480  43.200  43.241
   40.562  46.638  38.489  41.054  44.226  44.713  45.448  41.040  37.317  41.214
   39.450  43.395  38.305  38.664  37.380  38.145  39.193  44.174  37.613  43.509
   30.607  39.963  35.771  33.111  35.189  38.489  36.812  39.712  40.982  40.085

    1.500  40.271
   46.740  39.785  47.224  38.081  37.235  44.744  45.963  45.869  46.930  43.744
   48.766  48.819  50.899  47.215  41.504  38.974  36.163  42.539  47.861  53.730
   44.772  47.275  50.552  45.524  43.983  48.270  42.214  45.116  44.811  46.882
   51.494  42.376  45.626  50.769  46.225  45.002  47.237  43.791  51.719  47.569
   43.789  44.866  44.260  43.351  41.819  47.491  43.663  42.047  43.288  43.299
   48.362  47.972  47.612  43.136  44.950  41.596  43.578  43.507  43.673  41.248
   45.385  45.177  44.236  43.962  39.777  43.762  44.191  42.443  45.719  42.731
   41.415  46.259  38.320  39.789  43.808  43.650  43.087  41.068  40.440  39.413
   37.960  43.060  37.737  38.942  37.605  38.680  38.685  44.549  35.329  44.293
   30.874  38.522  37.539  33.735  36.689  35.876  38.869  39.874  41.056  39.387

    1.550  42.252
   48.274  41.290  47.044  38.306  37.722  45.278  47.257  45.666  46.296  45.163
   48.651  48.829  49.519  45.675  43.497  39.663  36.025  44.098  46.444  53.266
   45.073  51.575  50.934  47.890  43.862  47.110  39.657  47.388  45.180  46.850
   51.955  44.254  44.680  51.155  46.915  45.593  47.343  41.335  52.412  49.681
   44.100  45.777  44.923  45.374  41.881  47.739  44.787  43.903  44.972  43.940
   48.725  46.836  48.402  42.946  46.969  41.996  42.779  43.283  42.341  42.585
   45.702  46.774  43.032  43.243  40.446  44.373  43.803  40.628  43.822  43.133
   43.286  48.530  39.456  40.944  42.941  43.751  40.709  45.051  39.003  42.490
   36.478  42.901  38.670  35.582  34.934  37.365  39.566  42.709  37.430  44.701
   33.069  37.913  38.779  33.540  37.636  36.926  38.596  39.047  40.232  39.719

    1.600  43.150
   48.064  41.865  45.266  37.021  37.907  45.232  47.249  43.652  46.538  46.533
   48.788  51.215  51.050  45.068  42.819  41.021  34.386  44.428  48.149  50.971
   46.384  53.116  50.149  47.964  46.358  48.371  40.720  48.759  45.971  47.392
   50.176  48.151  45.399  48.345  47.098  44.888  48.396  41.927  52.091  50.305
   43.613  47.750  46.474  46.112  43.759  45.555  47.520  44.098  41.809  44.177
   48.175  45.086  45.952  42.582  47.623  40.865  42.683  43.847  40.815  44.557
   43.694  46.180  44.331  44.065  39.638  43.277  48.282  40.329  43.389  42.066
   41.999  47.241  37.913  42.073  41.896  44.597  42.220  45.703  40.075  43.738
   35.654  40.506  41.617  34.545  35.382  39.115  40.162  44.578  40.359  44.726
   32.435  38.595  34.896  35.889  38.269  35.368  39.259  38.943  39.252  40.676

    1.650  42.125
   49.034  43.941  44.701  36.985  37.978  47.716  48.513  44.730  47.985  45.171
   48.249  48.752  51.494  45.709  44.275  43.092  38.334  46.460  47.471  52.633
   47.318  50.367  48.431  48.090  46.480  48.342  41.270  48.036  43.824  44.756
   49.124  46.670  45.013  46.685  47.999  44.399  48.572  41.817  50.704  49.560
   44.681  47.689  46.947  45.775  46.943  44.621  47.516  45.357  41.661  43.085
   49.553  45.187  48.475  42.489  47.890  39.476  43.093  43.279  39.714  44.021
   43.360  45.563  43.555  44.217  40.256  43.517  49.849  42.159  41.733  43.224
   44.177  45.010  38.415  42.494  41.983  43.852  42.817  44.973  41.648  43.176
   35.829  40.431  41.543  36.144  35.789  37.090  40.667  44.953  40.812  43.782
   32.486  37.967  33.357  33.973  38.707  37.423  39.984  38.007  39.122  40.288

    1.700  43.390
   50.328  43.610  44.316  38.138  37.831  47.708  48.757  43.712  48.276  47.310
   46.453  49.969  49.338  46.563  43.123  42.752  39.540  47.248  48.599  51.643
   46.168  49.758  47.729  46.419  47.185  48.658  42.883  48.727  42.418  46.956
   46.710  47.156  47.461  47.459  48.432  42.810  48.777  40.194  48.938  52.011
   42.493  47.673  47.433  46.252  46.524  43.362  48.589  43.827  42.423  43.805
   50.766  44.405  49.727  45.978  47.388  39.322  43.639  42.712  40.368  44.424
   44.228  46.434  44.192  44.634  41.417  44.700  47.943  43.452  40.754  42.329
   44.635  43.609  36.169  42.200  40.471  40.571  41.325  45.587  40.808  43.204
   35.372  40.610  43.546  38.139  36.808  36.787  38.699  45.918  41.682  42.963
   31.877  38.455  33.947  31.707  38.607  37.947  40.199  39.038  39.797  39.666

    1.750  47.370
   50.554  44.894  42.437  37.661  38.772  47.786  48.427  42.757  48.478  46.561