
This full-field turbulence file was generated by TurbSim (v1.40, 12-Sep-2008) on 21-May-2021 at 12:51:24.

 | w-comp |  Y  x  Z  | Grid Resolution (Y x Z) | Time-step | Hub Elev | Mean U |
            10    10     15.556     15.556          0.050      80.00     50.00

 Z Coordinates (m):
  -70.000 -54.444 -38.889 -23.333  -7.778   7.778  23.333  38.889  54.444  70.000

 Y Coordinates (m):
  -70.000 -54.444 -38.889 -23.333  -7.778   7.778  23.333  38.889  54.444  70.000

    0.000   2.839
    0.166  -1.266   3.139   2.378  -1.318  -2.704   4.640   0.872  -2.202  -0.937
   -6.702  -4.438   1.732   0.083   2.145  -1.092  -3.028   3.725   4.000   2.168
   -0.749  -0.549  -5.171   3.672   3.847   0.112   3.369  -2.669  -4.737  -2.797
   -0.503   2.889  -4.562   1.658   0.493  -2.577  -3.242  -1.349   0.684  -0.153
   -1.081   2.329  -3.112   4.187   1.747  -2.132   0.659  -1.501  -1.879   0.333
   -1.588  -5.778  -1.288   0.311   5.519  -0.089  -1.823  -3.572   2.060   3.327
    0.815   6.264   1.050   2.319   4.121  -2.880  -4.676   3.158   0.125   1.419
    3.384   3.679   4.954   2.238   1.681   2.091   1.730  -1.442   0.610   6.025
   -3.390   1.437  -3.413  -0.902   2.229   0.443  -1.034  -5.764  -2.728   3.567
   -1.581  -0.856   2.068  -5.247   3.737  -0.075  -0.933  -1.172  -1.415  -1.787

    0.050   2.206
   -0.181  -1.934   1.221  -0.999  -1.504  -4.431   4.648  -0.705  -3.084   0.146
   -7.539  -4.076   2.055  -0.139   4.033   0.050  -2.039   2.590   2.460  -0.942
    0.087   0.978  -4.911   2.259   1.540   2.060   4.130  -2.748  -2.735  -2.128
   -2.231   4.885  -3.820   0.360   2.349  -3.367  -2.591  -2.047   0.445  -0.655
    0.952   2.690  -0.870   6.258   1.695  -0.833   2.217  -2.739  -2.446  -0.429
   -2.075  -3.873  -0.525  -0.050   5.401  -0.992  -0.993  -4.075   0.256   3.581
    1.301   6.437   0.697   3.532   2.590  -4.270  -3.652   3.730   0.860   2.340
    0.715   0.883   5.501   3.103   0.987  -0.747   1.703  -1.460   1.664   4.863
   -4.808   1.145  -3.701  -3.395   2.365  -0.596  -0.348  -5.048  -3.106   4.471
   -1.198  -0.907   0.726  -3.718   2.538   1.103  -0.405  -0.895  -0.589  -0.501

    0.100   3.326
    1.277   0.246   0.000  -2.106  -1.425  -4.780   5.232  -0.527  -1.061  -1.464
   -5.477  -3.677   0.502   1.420   3.909  -0.493  -2.755   2.874   1.417   2.117
   -1.113   2.399  -6.709   3.138   1.001   2.988   3.907  -2.144  -1.999  -0.653
   -1.588   3.251  -0.926  -0.936   4.691  -6.511   1.132  -3.041  -0.014  -1.819
    4.293   2.651  -0.066   6.172  -0.456  -2.176   2.169  -2.955  -1.060  -0.333
   -3.252  -2.485  -1.507  -2.101   3.348  -0.512  -1.656  -5.601  -0.483   4.547
   -0.406   3.152  -1.221   1.944   1.560  -2.864  -3.473   3.869  -0.557   0.565
    1.080   1.538   1.587   4.513   1.987  -0.471   1.149  -0.004   5.709   4.798
   -5.531  -1.633  -3.184  -2.269   3.945  -2.678  -0.261  -5.978  -1.228   1.665
    1.304  -4.080   2.688  -5.524   0.895   2.060   1.211   1.182   0.555  -0.069

    0.150   3.479
    1.638  -0.593  -1.623  -1.706  -2.546  -4.213   5.484  -0.756   1.183  -0.055
   -4.153  -4.123   0.588   1.597   3.953  -0.297  -2.380   0.293   0.584   2.819
    1.305   1.086  -5.365   2.420   3.558   5.463   0.909  -2.386   0.118  -0.647
   -2.291   4.658  -0.729   0.048   4.209  -2.672   0.881  -1.427  -1.572   0.291
    3.947   4.464   1.971   2.193  -2.516  -3.875  -0.781  -2.594   0.024  -0.829
   -1.841  -2.453  -0.391   0.058   3.729  -0.638  -1.929  -4.277   1.057   6.001
   -3.053   2.219  -2.030   1.543   0.999  -2.413  -3.718   4.642   1.535  -0.937
    1.301   0.557  -0.792   2.209   5.435  -0.805   2.191  -0.656   3.768   7.058
   -3.887  -3.499  -1.575  -1.213   1.686  -1.961   0.366  -6.430  -0.508  -2.681
   -0.336  -5.414   2.897  -5.007   2.832   2.230   0.297   0.298  -0.920   1.323

    0.200   1.649
    1.947   1.034  -2.656  -2.739  -3.004  -3.446   7.584  -1.215   0.421   0.025
   -3.765  -1.966  -0.921   1.275   1.598   0.888  -0.569  -2.198  -0.205   3.520
    1.695  -1.434  -3.422   2.093   4.799   8.434   0.550  -1.028   1.524  -1.509
   -2.609   3.292   0.079  -1.981   3.183  -4.995  -0.002  -1.679   0.501  -0.132
    2.565   1.104   1.122   3.101  -2.004  -2.282  -2.045  -1.931   0.093  -0.376
   -2.074  -2.802   1.567   0.610   2.603  -1.367  -0.162  -3.523   2.667   6.525
   -1.281   3.354  -1.918  -0.058   2.060  -4.048  -1.531   3.335   3.391  -0.079
    2.440   1.724  -1.122   1.825   4.232   0.005   1.730  -4.083   2.496   5.390
   -1.859   0.025  -2.846   2.212   0.738  -0.678  -0.893  -5.267  -0.941  -1.752
   -0.934  -3.205  -0.717  -3.919   1.068   1.836  -1.624  -1.181  -3.387   1.711

    0.250   0.433
    2.751   1.136  -3.847  -0.355  -3.980  -2.198   7.546   0.174  -0.895   0.487
   -2.733  -3.059   0.108   2.426  -0.310   0.852  -0.388  -1.706  -0.964   6.092
   -0.180  -0.819  -3.735   0.139   4.053   8.025   0.577  -0.448   1.307  -1.688
   -3.364   2.690  -3.386   0.195   4.190  -4.626  -1.224   0.145   1.202  -0.023
    3.959  -0.997   0.966   3.738  -0.563  -1.467  -0.871  -1.015   1.435  -1.842
   -0.427  -4.482   0.734  -0.868   2.185  -1.560  -3.906  -2.410   2.163   4.102
   -0.309   2.984  -0.752   1.355   3.053  -5.933  -3.295   2.925   3.912  -0.478
    4.639   0.922  -0.917   1.661   1.146  -0.663   3.060  -4.892   1.551   1.956
   -0.544  -1.304  -0.587   1.043   2.336   1.476   0.904  -1.570   1.114  -1.525
   -1.281  -4.415  -0.773  -3.658   2.656   0.613   0.748  -1.131  -2.452   1.172

    0.300   0.937
    1.487   3.434  -2.863   0.087  -5.042   1.739   4.918   0.654  -3.573  -3.845
   -2.786  -1.252  -2.811  -0.566  -0.631  -1.022  -0.099  -1.708  -2.323   3.547
   -1.207   1.823  -0.832   0.695   3.070   6.756   0.542  -1.039   0.161   0.226
   -1.235   2.743  -2.318   0.763   4.142  -3.169  -1.842   0.976  -1.140  -0.793
    2.612  -1.505   2.148   4.305   0.283  -3.043   0.477  -3.037   1.092  -1.996
   -0.286  -4.277   1.625  -2.773   1.528  -1.751  -5.584  -1.594   2.758   2.645
   -0.101   0.711  -0.236  -0.479   2.186  -5.064  -1.795   1.241   2.683   1.231
    2.745   0.279  -1.279   0.603   1.068   1.207   0.957  -5.591   0.068   0.209
    1.966   0.003   0.802   1.051   1.774   0.894   3.336  -0.544   0.055  -0.856
    1.386  -5.856  -2.765  -2.454   2.542   0.723  -0.798  -1.625  -1.320   0.720

    0.350  -2.020
   -1.405   4.191  -2.250   3.021  -4.957   2.490   3.495   1.979  -6.356  -3.412
   -3.490  -0.752  -4.114   0.551   0.404  -0.779  -1.183  -0.234  -2.858   1.322
    1.577   3.958  -2.695   2.236   4.116   3.558  -2.016  -1.433   0.731  -1.588
    0.250   3.153  -1.206  -0.322   3.834  -3.046  -1.396   1.356   0.167  -1.370
    2.734  -4.372   0.790   3.507   2.970  -1.213   0.888  -0.487   1.369  -3.578
    0.501  -4.458   0.015  -3.460   0.344   2.283  -2.844  -0.810   2.519   3.951
   -0.510   2.276   0.211  -1.089   3.743  -4.414  -0.991  -0.654   3.845   1.648
    2.546  -0.043  -3.373  -0.542   2.705   0.290   1.400  -4.044  -2.058   0.777
    0.174   0.027  -0.569   1.758  -0.232   4.042   2.015  -1.937  -1.724   0.900
    1.582  -3.324  -3.343  -2.884  -0.274   0.863  -0.073  -1.455  -1.608   1.718

    0.400  -0.528
   -4.338   2.724  -1.410  -0.119  -4.425   0.946   3.694   2.799  -4.802  -2.201
   -6.457  -1.401  -3.536  -1.073  -0.218  -2.673  -1.946  -1.125  -2.397   2.479
    1.126   3.067  -2.976   2.755   4.580  -0.109  -0.351  -0.473   0.616  -2.866
    0.367   1.828  -1.432   0.257   3.027  -3.456  -1.931   2.014  -0.365   0.740
    2.464  -3.105   1.736   2.274   2.011  -2.211  -1.772  -0.899   1.618  -0.065
    0.320  -5.054   0.989  -2.210   1.473   0.669  -2.884  -0.145   2.499   6.277
   -0.153   1.718   0.347   2.982   3.354  -1.880  -2.646  -2.016   3.052   2.063
    2.208   0.264  -2.744   0.021   1.751   0.731   0.552  -3.538  -1.107  -0.706
   -0.130  -0.476   0.503   3.153   2.689   5.493   1.920  -2.114  -2.064   1.560
   -1.888  -4.224  -1.985  -3.120   3.444   0.705  -2.098  -4.135  -3.812   2.067

    0.450   1.030
   -2.119   0.814  -2.076  -1.277  -4.399   0.168   4.163   0.725  -2.642  -0.934
   -4.383  -0.018  -3.190  -2.897  -0.651  -2.106  -3.009  -4.251   1.230   2.461
    0.603   1.208  -2.925   3.089   3.283  -0.912  -2.407   0.048  -0.025  -3.283
   -1.375   0.487   0.056  -2.644   0.684  -2.562  -2.490   1.328   0.247   2.634
   -0.162  -4.038  -0.721   1.167   1.377  -3.475   0.544  -1.301   2.744  -1.795
    0.755  -4.757  -1.286   0.080   5.159   2.784  -2.681   0.955   0.442   5.652
   -1.965   1.485   0.382   1.578   1.765  -2.671  -3.115  -4.153   2.356   1.880
    3.878   0.065  -0.120  -0.443   2.211  -0.546  -2.072  -4.485   1.730  -0.570
   -1.286   1.713  -1.551   3.443   1.359   4.831   3.438  -1.174   0.639   1.580
   -1.503  -8.008  -2.213  -4.554   5.616  -0.393  -2.425  -2.699  -0.721   1.488

    0.500   0.627
   -1.429   1.241  -2.573   1.364  -2.223  -0.880   2.517   1.817  -2.044  -1.515
   -2.793   0.482  -3.405  -2.198   0.122  -0.102  -2.121  -4.597   0.900   1.322
    1.850   4.328  -3.170   3.448   3.922  -2.408  -1.176  -1.378   0.603  -2.464
   -1.922  -0.810   0.473  -1.567   0.238  -1.614  -2.389  -1.392   2.294   2.721
   -4.320  -2.016   1.566   1.095   2.301  -2.495  -0.156  -1.439   0.991  -0.220
    0.479  -5.078  -2.163   2.240   4.708   0.461  -2.311  -0.432   1.437   5.796
   -2.455   2.999   1.366   0.147   3.352  -1.755  -3.875  -1.729   1.066   0.688
    4.354  -0.043  -1.279  -2.016  -0.212   2.726  -3.240  -4.515   0.518  -0.208
   -3.841   3.745  -3.965   1.067   0.169   3.606   2.244  -1.390   2.498   4.857
   -1.084  -4.867   2.760  -5.361   3.323  -1.469  -2.600  -3.057   0.552   1.438

    0.550  -0.263
   -1.021   0.877  -4.365   0.299  -1.790   1.037   3.404   4.307  -0.992  -0.989
   -1.950   3.850  -1.154   0.057  -1.954  -0.892  -3.043  -4.326  -0.914   2.891
    2.838   5.335   1.973   5.144   4.439  -2.468   0.229  -2.782   0.758  -1.175
   -0.395  -2.915  -3.756  -1.196   1.010  -2.697  -6.148  -0.986   1.253   1.138
   -4.550  -2.267   0.231   0.098  -0.376  -2.225   0.110   0.577   0.496   1.843
    2.052  -0.316  -0.616   2.139   5.193   0.692   0.438  -2.770   3.980   5.395
   -4.104   1.761  -1.030   1.871   3.653  -1.439  -3.466  -2.569   1.525  -1.506
    5.226  -1.475  -1.551   0.028   0.923   4.257  -2.634  -4.012  -1.591   2.125
   -2.879   0.246  -2.827  -0.012   1.012   5.055   2.146  -1.704  -0.136   3.506
   -3.563  -5.187   3.703  -3.940   1.336  -2.265  -3.936  -1.818  -2.951   3.252

    0.600  -0.571
    2.010   0.006  -2.446  -3.008  -0.318  -0.454   0.924   4.523  -1.805  -0.516
   -3.045   4.145  -1.113   2.536  -3.780  -0.270  -2.573  -5.179   0.920   3.715
    4.138   4.155   3.042   3.964   3.501  -1.585   0.785  -2.606   1.501  -2.633
   -1.128  -2.971  -1.634  -0.068   0.191  -3.792  -3.903   0.236   0.672   0.090
   -3.863  -0.027   1.061  -0.389  -0.451   0.830   3.810   0.210  -1.235   1.213
    1.085   1.730  -0.295  -1.546   1.432  -0.993   1.488  -1.868   2.634   5.272
   -2.933   2.038  -1.790   1.370   1.127  -2.055  -2.831  -3.944   1.576  -0.585
    3.949  -2.625   0.419   2.123  -0.546   1.971  -4.641  -4.207  -1.712  -0.043
   -1.472  -1.953  -1.722   1.540  -1.222   3.438   3.473  -1.448   1.494   2.325
   -3.697  -6.040   2.247  -1.998   2.491  -1.197  -5.352  -1.799  -0.496   4.986

    0.650   0.555
    1.449   1.919  -0.715  -3.825  -0.174  -1.065   0.176   3.173   1.022   0.024
   -3.461   3.336  -2.867   0.133   0.006  -0.006  -3.667  -7.169  -1.316   2.905
    2.946   5.766   2.930   5.201   5.310   0.650   4.194  -2.264  -0.321  -0.813
   -2.118   0.445   1.244   2.298   0.202  -2.076  -2.840   2.463   0.617   0.334
   -3.970  -2.354   0.658  -4.437  -1.004  -1.442   5.619  -1.285   0.126  -2.370
    0.510   0.802  -1.280  -4.548  -0.468  -1.458   1.425  -1.765  -0.191   5.285
   -2.120   1.515  -1.780   3.105  -1.245  -1.231  -3.951  -1.872   4.245  -0.891
    3.670  -0.906   1.120   1.682   0.921   0.152  -6.332  -3.016  -0.926  -0.195
   -1.640  -0.983   0.419   1.286  -2.458   0.142   3.105  -3.896   2.881   3.474
   -2.525  -3.149   2.820  -3.890   2.709  -2.169  -3.670  -4.295  -0.872   4.879

    0.700   3.971
    3.493   2.298   1.514  -2.379  -0.143  -3.616  -0.844   5.013  -0.630   1.577
   -3.078   4.057  -1.911   3.042   1.877   0.927  -3.046  -6.260  -4.994   3.554
    0.072   5.324   1.957   4.854   7.463   0.138   4.333  -2.241  -2.939  -0.617
   -7.094   1.051   0.032   1.688   1.419  -2.161  -3.358   1.595  -1.095   1.019
   -3.629  -2.573  -2.033  -4.926  -1.806  -0.554   7.541  -1.285  -1.781  -1.239
   -1.406   0.527  -2.526  -1.545  -0.083   1.140   2.703  -4.163   0.504   6.302
    0.010   0.202  -1.744   3.904  -2.186  -2.417  -5.657  -1.242   6.217   1.685
    3.470   2.162  -2.671   3.055   1.539  -0.329  -6.561  -1.937  -2.355  -0.513
   -1.989  -3.029   2.444   1.326  -1.471   0.532   2.097  -3.570   2.824  -1.532
   -2.164  -4.953   2.278  -5.243   1.368  -2.108  -2.562  -2.564   4.631   4.601

    0.750   2.795
    1.842   4.043   1.471   0.036   1.504  -2.794  -0.136   3.823   0.264   3.021
   -1.691   4.786  -2.053   3.272   4.361   2.203  -5.155  -4.120  -6.323   3.932
   -0.460   6.173  -1.634   3.947   5.347  -1.205   5.108   0.388  -2.296  -1.836
   -7.525   1.074   0.318   1.843   1.629  -0.450  -2.273   0.603  -0.746   5.633
   -2.903  -0.823  -3.272  -1.574   0.590  -0.161   8.207  -2.748  -0.018  -2.513
    0.692  -0.714  -2.794   0.483  -1.133   3.724   0.417  -3.521   2.188   4.099
    0.174   0.187   0.154   1.819  -4.130  -1.375  -4.961  -1.133   6.686  -1.899
    2.778   2.188  -3.759   0.331   2.030  -0.670  -6.195   0.309  -0.901  -0.770
   -1.686  -3.588   4.048  -0.667   1.807   0.962   4.572  -2.973   4.403  -3.636
   -1.856  -4.954   2.628  -4.624   0.688  -3.632  -4.131   1.175   1.969   4.979

    0.800   2.069
    2.368   4.775   2.057  -1.220   1.386  -2.294  -0.233   1.970  -0.050   2.955
   -0.804   2.359  -1.934   1.665   4.317   0.664  -5.508  -2.603  -6.319   4.483
   -2.156   4.723  -0.322   3.864   4.236   0.164   4.940  -0.707  -3.175  -0.205
   -8.134  -0.011   0.656   0.553   1.547  -0.266  -2.845  -1.456  -2.789   3.888
   -1.904  -2.848  -3.795  -1.433  -0.094   0.905   3.784  -1.937  -0.086  -3.478
   -0.766  -2.121  -2.068   1.366  -1.893   2.887   0.558  -4.136   1.116   2.199
    0.703   1.590  -0.584   1.320  -2.912   0.874  -4.168  -0.312   7.676   0.460
    1.180   1.506  -4.607   1.154   3.601  -2.774  -5.034   1.946   2.311  -1.453
   -1.772  -3.114   1.055  -1.565   2.860  -0.319   5.477  -3.390   3.501  -3.597
   -1.623  -4.503   1.420  -4.019  -0.827  -4.115  -3.074  -1.069   2.262   4.227

    0.850   1.735
    2.035   3.453   2.932  -3.729   2.588  -1.854  -0.640   2.011   0.421   3.490
   -3.703   0.052  -3.169  -2.446   3.505   0.882  -5.526  -5.049  -5.397   3.501
    0.222   4.026   1.480   1.015   4.355  -0.170   4.803   0.406  -3.412   0.402
   -7.209  -0.134   0.005   0.156   1.758  -0.769  -5.684  -0.578  -0.469   5.608
   -1.260  -2.485  -1.883   0.339  -0.945  -1.983   3.519  -2.488  -0.837  -2.647
   -4.346  -2.541  -3.175   0.234  -1.594   1.412   0.390  -4.894   1.142   3.173
    1.449  -1.010  -2.219   0.823  -3.007   1.107  -4.164   1.348   5.586   1.066
    0.994   2.052  -4.167   0.889   3.162  -1.835  -2.948   2.088   3.517   0.064
    0.725  -2.855   1.583  -1.132  -1.338  -1.298   6.355  -3.004   4.298  -4.427
   -3.479  -6.786   2.423  -2.780  -2.369  -3.121  -2.011  -1.165   0.090   3.233

    0.900   0.862
    1.471   3.901   3.650  -0.648   1.379  -3.983  -2.211   2.635   1.141   2.108
    1.431   2.516  -1.691   2.052   0.977   0.065  -6.399  -2.755  -2.861   2.745
    1.318   0.568   2.366   1.384   3.930  -3.567   0.184   2.376  -5.455  -2.440
   -3.399   1.368  -0.593   0.148  -0.278   0.110  -4.015   1.338  -0.570   5.622
    1.440  -1.225  -0.768  -0.873   4.097  -1.752   1.722  -3.313  -0.185  -0.897
   -3.853  -3.336  -2.019   0.249  -0.721   0.167   1.701  -6.729   2.206   3.963
    1.139   0.416  -2.841   1.067  -4.307   0.454  -4.692  -0.717   5.183   0.896
   -0.439   0.401  -4.617  -0.454   0.749  -1.353  -3.396   0.904   2.118   0.477
    2.736  -3.520   5.211   0.151  -1.292  -0.027   4.336  -1.765   3.319  -1.640
   -3.317  -7.975   3.525  -2.346   0.137  -5.075   1.060   0.562  -0.503   2.893

    0.950   0.690
    3.543   4.753   2.931  -0.223  -3.001  -4.273  -0.415   2.637   0.828   2.010
    0.589   1.221   0.854   0.965  -1.857   0.195  -5.196  -3.130  -4.452   4.140
    1.596   1.271   1.825   4.156   3.539  -2.560  -0.714   3.641  -2.583  -0.670
   -5.616   0.642  -0.523   0.483  -0.633  -0.919  -2.005   0.565  -3.937   2.417
   -1.100  -1.389   0.384  -4.337   2.952  -2.039   2.383  -3.512  -0.300  -1.119
   -0.718  -1.834  -2.478   1.279   1.144   0.903   0.976  -4.996   2.986   2.911
    1.405  -1.545  -4.004   1.926  -3.343   0.429  -4.202   1.126   4.963  -0.255
   -0.612   0.148  -2.026  -0.753   1.454   0.772  -1.263   1.733   4.559   0.559
    0.311  -3.820   5.524  -1.014  -1.550  -2.074   6.007  -2.308   3.778  -1.601
   -3.963  -7.886   3.286  -2.330  -0.954  -4.702   1.349  -0.897  -1.158   1.513

    1.000   1.834
    0.846   7.291  -0.264   3.336  -3.837  -2.148   0.674   4.771   0.351   3.800
   -0.973   4.402   3.938   0.734  -0.361  -0.703  -1.704  -2.973  -5.220   2.797
    1.839   1.331   1.929   1.825   4.634  -5.188   1.331   3.006  -1.237   1.009
   -5.167  -0.203   0.901  -2.221   1.204  -4.328  -2.424  -0.613  -1.311   1.992
   -2.517  -1.543   2.504  -6.142   1.970  -4.401   1.416  -2.167   0.466  -2.951
   -2.195  -1.979  -3.314  -0.793   1.059   3.105   0.078  -2.703   2.268   1.303
    2.827  -0.865  -3.291   0.904  -2.718   1.545  -7.092   2.042   5.924  -2.271
    0.293  -0.798  -1.626   1.230   4.068   0.857  -2.108   1.598   4.869   2.520
   -1.455  -0.546   4.395  -0.968  -2.430  -3.206   4.021  -3.061   2.640  -0.161
   -0.931  -9.943   3.521  -3.930  -0.121  -3.379   3.231  -0.652   1.344   3.552

    1.050  -0.153
   -0.061   4.873   0.667   6.523  -2.941  -4.937   3.793   3.244   1.267   1.617
   -3.585   4.443   2.830  -2.076  -1.379  -2.125  -3.154  -1.956  -2.893   2.230
    0.049   2.138   0.187   2.147   3.149  -3.973   1.153   3.716   0.660   1.437
   -2.831   0.424   1.113  -2.261   0.622  -3.574  -1.048  -0.932  -0.854  -0.354
   -0.204   0.778   3.962  -4.678   1.895  -3.122   1.310   0.220   0.787  -0.927
   -3.024  -2.739  -4.504  -2.587   0.026   4.949   3.420  -2.021   2.574  -0.839
    4.018   2.021  -3.764   0.513  -2.756  -0.071  -5.655   0.757   3.398  -1.289
   -2.577   0.053   0.201   3.050   5.278   1.487  -2.526   2.147   5.622   2.018
   -0.766   2.625   3.764  -3.476  -1.007  -4.752   3.754  -4.498   2.125   1.076
   -0.374  -9.572   4.685  -2.605   2.013  -2.190   4.528  -3.150   2.628   3.389

    1.100   0.287
    2.072   4.954   2.170   2.257  -2.872  -5.161   3.416   3.753  -0.849   1.236
   -3.473   2.265  -0.340  -2.466  -0.445   1.208  -2.304  -3.856  -3.118   0.853
    0.792   1.620   0.001   3.799   2.570  -4.496   0.132   1.974  -1.487  -0.112
   -3.965   0.493   3.658  -0.685  -0.448  -4.440  -0.096   1.129   1.300   0.912
    0.753  -1.590   4.254  -2.170   1.252  -2.145   1.393   1.993   0.103  -1.069
   -0.345  -2.775  -5.427  -2.369   0.884   1.591   3.281  -4.639   1.579   0.724
    3.999   3.140  -3.358   1.635  -2.486   1.604  -4.169  -0.902   1.604  -0.246
   -1.559   0.419   0.997   1.805   5.765   0.612  -3.361   2.898   4.804  -1.290
   -1.497  -0.120   0.487   1.357  -1.304  -3.888   3.479  -4.841   1.371   0.398
   -1.194  -9.787   2.237  -2.971   2.145  -1.731   2.215  -3.385   1.921   3.219

    1.150   1.580
    0.463   4.156   1.165   1.778  -1.261  -5.099   2.812   4.415  -0.855   4.178
   -1.785   7.210   0.918  -3.094  -0.199   2.508  -4.801  -1.668  -3.262   2.360
    0.886   0.858  -0.422   3.743   1.500  -5.580   1.386   0.858  -4.982  -0.143
   -5.674   0.275   5.016  -1.121   0.821  -5.397  -0.666  -0.171   0.525  -1.763
    0.374   0.726   7.062  -2.603  -0.980   0.518   3.909   1.114  -0.335  -1.603
   -0.702  -1.112  -3.718  -2.035  -0.501   2.878   3.615  -4.871   1.332  -1.826
    5.950   6.052  -3.484   2.196  -3.883   0.262  -2.428  -2.261   0.419   2.179
   -1.870  -1.801   0.750   3.930   7.167  -4.537  -3.511   1.210   3.271  -0.341
   -2.239  -1.311  -1.532  -0.609  -0.610  -2.655   3.466  -6.104   0.257   1.157
   -0.480  -8.591   3.154  -1.955  -1.167  -4.035  -0.211  -2.560  -0.267   2.995

    1.200   3.605
   -1.468   3.082   1.533   4.925  -0.575  -3.971   1.036   4.369  -2.644   5.257
    0.027   4.122   2.404  -5.616   1.227   2.507  -5.499  -3.522  -6.245   1.423
   -1.078   1.756  -0.326   3.111  -0.740  -2.797   2.539   1.933  -7.171  -0.747
   -5.677  -1.065   5.246  -2.885  -0.354  -4.031  -1.206   0.905   1.548  -2.504
   -2.015   1.639   2.333  -1.034  -1.097  -0.884   2.455   5.003   0.166  -3.082
   -2.849  -3.515   0.260  -1.492  -1.801   1.422   1.115  -2.065   1.054  -1.710
    2.572   4.922  -1.516   0.314  -3.253   1.441  -1.966  -0.610   2.079  -0.123
   -1.983  -2.407   2.079   4.287   6.455  -2.445  -0.137   0.181   3.079  -3.950
   -0.457  -1.189  -3.477   1.852   0.537  -2.189   0.807  -5.820   0.349  -3.391
   -0.428  -8.105   3.615   0.708  -2.179  -2.468   0.018  -2.259   0.029   4.146

    1.250   1.355
   -1.421   1.778   4.191   3.728   2.229  -4.687  -0.303   3.299  -3.207   3.713
    1.713   1.435   1.943  -5.222   1.067   0.486  -3.942  -3.227  -4.743   1.036
   -0.165  -0.170   0.077   0.661  -2.170  -4.366   2.939   1.814  -4.544   0.079
   -4.901  -2.314   2.519   0.299   0.651  -4.028   1.733  -0.116   1.601  -0.418
    0.801   0.880   1.719  -1.572   0.550  -1.385   1.824   6.687   3.085  -3.609
   -1.328  -4.059  -2.008  -0.419   0.239  -0.594   1.804  -0.493  -0.975   0.952
    3.775   3.656   1.634   2.964  -0.431   2.431  -2.368  -3.202   1.249  -2.194
    1.091  -0.371   1.008   3.852   6.722   0.082  -1.822   1.597   4.135  -2.195
    0.364   0.526  -3.339   1.900   1.052  -1.397  -0.435  -3.306  -1.056  -2.026
   -0.707  -9.223   2.294  -1.219  -1.261   0.683   0.864  -3.093   0.369   4.692

    1.300   0.006
    2.279   0.322   2.432   6.444   5.462  -3.656   0.046   1.474  -5.556   0.915
    2.921   4.600   0.790  -4.450   0.942   0.533  -0.383  -2.312  -4.999   1.887
   -0.892  -3.105   0.408   2.425   0.640  -6.478   2.909  -0.975  -3.996   1.079
   -3.715  -0.844   2.008  -2.114  -1.326  -4.179   2.048  -2.858  -3.021   0.412
   -0.117   3.276   3.848  -0.429   1.448  -1.564  -1.761   4.838   0.277  -1.814
   -1.040  -3.244  -2.403  -1.417  -0.172  -0.790   3.296   0.931  -2.213  -0.136
    3.046   4.206  -0.676   2.672  -2.935   2.728   0.086  -2.803  -1.021  -2.807
    1.822   1.122   1.835   2.713   4.351   1.121  -1.089   1.222   1.682   1.011
   -1.064  -0.338  -3.431   2.623   1.257  -1.083   2.073  -3.080  -0.147  -2.589
   -0.651 -10.260  -2.468  -0.364  -0.623   4.035   1.534  -0.744   0.286   2.257

    1.350   0.069
    1.345   1.905   1.245   5.847   6.129  -2.955  -1.115   1.460  -3.441   0.766
    0.545   4.022  -0.296  -3.519   0.031  -2.512  -1.175  -1.719  -1.972   0.724
   -1.996  -4.461   0.815   1.780   0.908  -4.138   2.792   0.052  -3.310   0.252
   -3.030   1.184   2.447  -4.034  -3.357  -3.011   2.733  -1.689  -2.529   1.075
    1.496   2.096   0.893   0.336   0.605   0.122  -2.970   5.666   2.087  -0.544
   -2.039  -4.444  -1.826  -2.365  -0.530  -0.365   0.754  -1.074  -0.166   1.145
    1.344   6.097  -0.349   3.633  -2.695   5.024  -1.607  -4.148   0.013   0.333
    3.470   0.259   2.018   4.758   3.830   0.127  -1.343  -0.723   1.067   0.986
   -3.279   0.287  -3.968   3.776   3.051  -0.706   2.459  -1.766  -0.546  -4.177
   -0.310  -8.919  -0.440  -0.437  -0.082   7.443   3.348  -1.354   1.793  -0.234

    1.400   0.864
   -1.509   2.083   1.391   4.874   5.030  -6.143  -1.319   1.708  -1.513   5.075
   -2.101   3.636  -0.341  -1.832  -0.757  -4.345  -0.197   0.323  -3.215   0.156
    2.279  -5.089   0.556   2.040  -1.747  -2.613   5.001   0.355  -4.833   2.161
   -1.377  -2.311   2.646  -1.886  -5.371  -2.715   6.250  -0.818  -2.907  -0.245
    1.729   0.559   4.846  -0.168   1.364  -0.124  -4.717   5.633   1.663  -0.539
   -2.943  -3.215  -3.713  -0.906  -1.774   0.879   2.829  -1.857   0.916   0.498
    1.953   4.936  -2.605   2.326  -1.535   3.514  -1.732  -2.191   0.508  -0.131
   -0.026   2.368  -1.752   4.478   2.563   0.801  -1.299  -1.400   0.962  -0.525
   -2.495  -0.710  -6.667   0.665   1.071  -2.737   1.616  -0.424  -2.037  -2.181
    0.093  -7.610  -0.770   1.087  -0.939   7.204   2.409  -0.114   1.501   1.980

    1.450   3.334
   -2.475   0.811  -0.733   2.719   4.879  -7.866  -1.198   1.919   0.773   4.110
   -2.573   3.910  -0.846  -2.973   1.274  -4.086   3.164  -0.050  -2.250   1.010
    2.571  -4.346   0.349  -0.581  -1.697  -3.943   1.887   0.919  -3.454   0.093
   -1.013  -3.927   2.741  -2.396  -5.392  -3.620   3.984  -0.249  -3.503   0.979
    1.156  -0.871   3.935  -2.272   4.093  -0.946  -3.295   0.946  -1.077  -0.646
   -0.912  -4.092  -1.187   1.371  -2.956  -1.002   3.084  -0.971  -1.137   1.956
    1.602   2.977  -2.392   3.701  -0.879   1.370  -3.179  -4.589  -0.901  -2.157
    0.598   4.175  -3.601   4.932   2.185   0.080  -2.654   3.843  -0.648  -1.207
   -1.225  -1.109  -6.506   0.974  -2.049  -3.010   2.511  -0.496  -1.185  -2.024
   -0.388  -5.176  -3.043   1.182  -2.479   1.621   2.583  -1.451   1.823   2.696

    1.500   3.020
   -3.637   2.125   1.597   1.707   1.313  -8.338   1.935   3.618  -2.350   4.486
   -1.228   3.514  -1.633  -3.935  -1.114   0.180   0.482  -0.389  -3.721  -2.388
    4.588  -2.536   2.678  -0.297  -1.610  -0.859   0.067   1.109  -2.878  -1.418
   -2.765  -2.565   4.168  -1.979  -3.338  -2.144   1.167  -2.212  -3.901  -0.159
    0.855  -2.503   3.721  -0.605   5.679  -2.042  -2.884   2.775  -2.890  -1.536
    0.611  -4.109  -1.342   0.608  -2.332   0.652   3.454   2.286  -1.259   0.676
    0.506   1.435  -2.174   2.865  -0.310   3.603  -5.049  -2.522   0.097  -1.517
   -1.274   4.753  -0.751   3.275   3.405   2.944  -2.965   5.929   2.632   0.603
   -3.201  -0.482  -5.448   3.631  -1.791  -2.308   2.997  -1.867   2.525  -3.528
    1.161  -7.189  -1.057   0.365   1.290   1.153   4.438   0.656   1.132   2.280

    1.550   2.366
   -2.410   4.055   1.949   1.887  -0.864  -8.419   0.569   3.979  -1.462   5.900
   -2.264   2.341   1.185  -3.144  -0.185  -0.321  -0.043  -0.612  -4.836  -1.944
    5.299  -2.422   3.268  -1.374  -2.659   0.716   2.425  -0.323  -3.260  -1.689
   -4.710  -1.829   2.974   0.229  -4.436  -1.417  -0.336  -4.277  -3.402   2.178
   -3.089  -0.272   5.900  -1.695   4.085  -2.078  -2.661   2.823   0.036  -1.963
    0.938  -2.943  -2.132  -1.647  -1.382  -1.874   5.078   2.022   0.313   1.137
    0.206  -0.566  -3.186   3.530  -0.577   2.247  -3.469  -0.330  -0.181  -1.411
   -0.921   0.498   1.088   1.966   3.207   1.980  -0.472   8.921   3.643   2.592
   -3.099   1.760  -5.279   1.578  -2.748   1.239   3.756  -1.269   0.901  -1.268
    1.997  -7.542  -2.413   0.362  -0.422   1.309   4.855   0.064   0.442   3.669

    1.600   1.307
   -1.386   5.027   5.622   0.485   1.818  -6.673   1.982   2.444   1.052   5.350
   -0.334   0.900   3.177  -2.554  -0.030  -3.465  -2.065  -1.210  -3.667  -1.813
    5.260   0.238   2.861   0.483   0.577   1.927   4.269  -0.281  -2.802  -0.054
   -3.364  -2.390   2.943   3.208  -2.360  -2.628  -0.465  -3.748  -4.037   1.090
   -1.616   1.162   3.160  -0.042   3.462  -2.915  -4.055   2.556  -2.847  -1.013
   -1.032  -3.910   1.098  -1.659  -1.823  -3.397   4.157   2.043   1.343   1.775
    0.842   0.049  -1.542   2.159   0.730   3.170  -3.513  -2.388   1.252   0.195
    0.386   1.075   1.960  -0.702   1.283   3.159  -0.563   7.936   1.975   3.113
   -2.074   1.007  -1.914   0.947  -2.208  -0.426   0.220  -0.907   1.038  -0.065
    2.064  -5.495  -3.293   2.192  -2.108   1.164   2.859   1.946  -0.161   2.763

    1.650   3.840
   -3.389   2.903   4.020   2.481   2.951  -1.946   1.115   2.384   2.302   3.272
   -0.360  -0.423   2.708  -4.075  -0.709  -1.153  -2.323  -1.319  -2.820  -3.884
    5.086   0.423   1.076  -0.140   0.523   1.113   3.566  -0.495  -2.357   0.344
   -3.684  -2.305   4.811   4.728  -1.470  -5.204   0.403  -4.106  -2.197  -0.577
   -2.531  -0.951   1.117   1.222   1.482  -3.499  -4.541   0.865  -1.545  -1.504
    3.310  -3.571   2.039  -1.733  -3.715  -2.532   3.039   1.118   1.479   1.188
    1.886   1.917  -2.862   1.177  -0.741   1.976  -5.389  -3.316   0.588  -0.246
    3.015   1.383   3.893   2.659   0.077   1.368  -3.280   6.741   0.420   2.177
   -2.242  -0.323  -2.478   2.872  -2.728   1.633   2.093  -4.526  -0.658   0.930
    0.837  -2.844  -1.809   0.742   0.129   0.470   5.491   3.336   2.144  -0.202

    1.700   0.069
   -2.909   1.698   1.921   3.281   1.212  -3.124   1.748   1.962   2.014   2.729
    0.549  -0.870   3.180  -2.459  -1.190  -1.573  -0.347   0.236  -2.199  -1.129
    3.845   1.178  -1.745  -0.636   1.089   0.903   0.639  -1.496   1.397   0.529
   -4.117  -0.701   8.425   3.281  -0.727  -4.359   1.068  -5.784  -1.720  -0.271
    0.458  -0.826   1.758   2.242  -0.579  -3.428  -4.748   1.030  -2.860  -3.482
    1.843  -3.710   1.483  -2.561  -3.119   1.331   5.170  -0.654  -0.699   2.717
    4.747  -0.248  -5.292  -1.337  -0.233   3.393  -1.116  -3.656   1.551  -0.531
    1.596   0.426   3.064  -0.287   1.850   0.020  -4.552   5.719  -0.608   2.684
   -1.417   0.960  -0.267   1.946  -1.238   3.453   1.877  -3.159  -2.275   0.511
    2.169   0.850   1.046   0.643  -1.218   0.174   5.838   3.202   1.691   0.405

    1.750   0.290
   -2.771   2.550   3.920   0.902   0.653  -1.403   2.411   2.680   1.725   3.586